                                  MODFLOW-NWT-SWR1 
      U.S. GEOLOGICAL SURVEY MODULAR FINITE-DIFFERENCE GROUNDWATER-FLOW MODEL
                            VERSION 1.1.3, 8/01/2017
                    BASED ON MODFLOW-2005 VERSION 1.11.00 08/08/2013

 LIST FILE: wellsuppirr.lst
                         UNIT    9

 OPENING wellsuppirr.ba6
 FILE TYPE:BAS6   UNIT   75   STATUS:OLD    
 FORMAT:FORMATTED              ACCESS:SEQUENTIAL          

 OPENING wellsuppirr.upw
 FILE TYPE:UPW   UNIT    7   STATUS:OLD    
 FORMAT:FORMATTED              ACCESS:SEQUENTIAL          

 OPENING wellsuppirr.dis
 FILE TYPE:DIS   UNIT    8   STATUS:OLD    
 FORMAT:FORMATTED              ACCESS:SEQUENTIAL          

 OPENING wellsuppirr.nwt
 FILE TYPE:NWT   UNIT   13   STATUS:OLD    
 FORMAT:FORMATTED              ACCESS:SEQUENTIAL          

 OPENING wellsuppirr.oc
 FILE TYPE:OC   UNIT   14   STATUS:OLD    
 FORMAT:FORMATTED              ACCESS:SEQUENTIAL          

 OPENING wellsuppirr.sfr
 FILE TYPE:SFR   UNIT   15   STATUS:OLD    
 FORMAT:FORMATTED              ACCESS:SEQUENTIAL          

 OPENING wellsuppirr.wel
 FILE TYPE:WEL   UNIT   16   STATUS:OLD    
 FORMAT:FORMATTED              ACCESS:SEQUENTIAL          

 OPENING wellsuppirr.ghb
 FILE TYPE:GHB   UNIT   17   STATUS:OLD    
 FORMAT:FORMATTED              ACCESS:SEQUENTIAL          

 OPENING wellsuppirr.uzf
 FILE TYPE:UZF   UNIT   19   STATUS:OLD    
 FORMAT:FORMATTED              ACCESS:SEQUENTIAL          

 OPENING wellsuppirr.gag
 FILE TYPE:GAGE   UNIT   32   STATUS:OLD    
 FORMAT:FORMATTED              ACCESS:SEQUENTIAL          

 OPENING seg1.tab
 FILE TYPE:DATA   UNIT   55   STATUS:UNKNOWN
 FORMAT:FORMATTED              ACCESS:SEQUENTIAL          

 OPENING seg9.tab
 FILE TYPE:DATA   UNIT   56   STATUS:UNKNOWN
 FORMAT:FORMATTED              ACCESS:SEQUENTIAL          

 OPENING wellsuppirr.irs
 FILE TYPE:DATA   UNIT   58   STATUS:UNKNOWN
 FORMAT:FORMATTED              ACCESS:SEQUENTIAL          

 OPENING wellsuppirr.irr
 FILE TYPE:DATA   UNIT   59   STATUS:UNKNOWN
 FORMAT:FORMATTED              ACCESS:SEQUENTIAL          

 OPENING wellsuppirr.sup
 FILE TYPE:DATA   UNIT   60   STATUS:UNKNOWN
 FORMAT:FORMATTED              ACCESS:SEQUENTIAL          

 OPENING wellsuppirr.hed
 FILE TYPE:DATA   UNIT   62   STATUS:UNKNOWN
 FORMAT:FORMATTED              ACCESS:SEQUENTIAL          

 OPENING wellsuppirr.uzfot
 FILE TYPE:DATA(BINARY)   UNIT   61   STATUS:UNKNOWN
 FORMAT:BINARY                 ACCESS:SEQUENTIAL          

 OPENING netfluxin.unf
 FILE TYPE:DATA(BINARY)   UNIT  100   STATUS:UNKNOWN
 FORMAT:BINARY                 ACCESS:SEQUENTIAL          

 OPENING netfluxout.unf
 FILE TYPE:DATA(BINARY)   UNIT  101   STATUS:UNKNOWN
 FORMAT:BINARY                 ACCESS:SEQUENTIAL          

 OPENING cbc.unf
 FILE TYPE:DATA(BINARY)   UNIT  102   STATUS:UNKNOWN
 FORMAT:BINARY                 ACCESS:SEQUENTIAL          

 OPENING wellsuppirr.uzf1
 FILE TYPE:DATA   UNIT   65   STATUS:UNKNOWN
 FORMAT:FORMATTED              ACCESS:SEQUENTIAL          

 OPENING wellsuppirr.uzf2
 FILE TYPE:DATA   UNIT   66   STATUS:UNKNOWN
 FORMAT:FORMATTED              ACCESS:SEQUENTIAL          

 OPENING wellsuppirr.uzf3
 FILE TYPE:DATA   UNIT   67   STATUS:UNKNOWN
 FORMAT:FORMATTED              ACCESS:SEQUENTIAL          

 OPENING wellsuppirr.uzf4
 FILE TYPE:DATA   UNIT   68   STATUS:UNKNOWN
 FORMAT:FORMATTED              ACCESS:SEQUENTIAL          

 OPENING wellsuppirr.flw
 FILE TYPE:DATA   UNIT   81   STATUS:UNKNOWN
 FORMAT:FORMATTED              ACCESS:SEQUENTIAL          

 OPENING wellsuppirr.sg1
 FILE TYPE:DATA   UNIT   83   STATUS:UNKNOWN
 FORMAT:FORMATTED              ACCESS:SEQUENTIAL          

 OPENING wellsuppirr.sg2
 FILE TYPE:DATA   UNIT   84   STATUS:UNKNOWN
 FORMAT:FORMATTED              ACCESS:SEQUENTIAL          

 OPENING wellsuppirr.sg3
 FILE TYPE:DATA   UNIT   85   STATUS:UNKNOWN
 FORMAT:FORMATTED              ACCESS:SEQUENTIAL          

 OPENING wellsuppirr.sg4
 FILE TYPE:DATA   UNIT   86   STATUS:UNKNOWN
 FORMAT:FORMATTED              ACCESS:SEQUENTIAL          

 OPENING wellsuppirr.sg5
 FILE TYPE:DATA   UNIT   87   STATUS:UNKNOWN
 FORMAT:FORMATTED              ACCESS:SEQUENTIAL          

 OPENING wellsuppirr.sg6
 FILE TYPE:DATA   UNIT   88   STATUS:UNKNOWN
 FORMAT:FORMATTED              ACCESS:SEQUENTIAL          

 OPENING wellsuppirr.sg7
 FILE TYPE:DATA   UNIT   89   STATUS:UNKNOWN
 FORMAT:FORMATTED              ACCESS:SEQUENTIAL          

 OPENING wellsuppirr.sg8
 FILE TYPE:DATA   UNIT   90   STATUS:UNKNOWN
 FORMAT:FORMATTED              ACCESS:SEQUENTIAL          

 OPENING wellsuppirr.sg9
 FILE TYPE:DATA   UNIT   91   STATUS:UNKNOWN
 FORMAT:FORMATTED              ACCESS:SEQUENTIAL          

 BAS -- BASIC PACKAGE, VERSION 1.1.3, 8/01/2017 INPUT READ FROM UNIT   75
 
 MODFLOW was compiled using mixed precision
 Precision of REAL variables:           6
 Precision of DOUBLE PRECISION variables:          15

 DISCRETIZATION INPUT DATA READ FROM UNIT    8
 #Test problem 2-- Discretization input
 #Example problem using the UZF1 Package
    1 LAYERS        15 ROWS        10 COLUMNS
   25 STRESS PERIOD(S) IN SIMULATION
 MODEL TIME UNIT IS SECONDS
 MODEL LENGTH UNIT IS FEET
  Confining bed flag for each layer:
   0

                     DELR =   5000.00    

                     DELC =   5000.00    



           TOP ELEVATION OF LAYER 1
 READING ON UNIT    8 WITH FORMAT: (10F7.0)            

            1           2           3           4           5           6           7           8           9          10
 ........................................................................................................................
   1    1105.       1105.       0.000       0.000       0.000       0.000       0.000       0.000       0.000       0.000    
   2    1105.       1095.       1105.       0.000       0.000       1100.       1100.       1110.       0.000       0.000    
   3    0.000       1100.       1085.       1080.       1078.       1076.       1073.       1090.       0.000       0.000    
   4    1110.       1100.       1090.       1085.       1076.       1080.       1080.       1070.       1100.       0.000    
   5    1110.       1100.       1085.       1080.       1078.       1074.       1077.       1066.       1075.       1080.    
   6    1105.       1095.       1080.       1077.       1073.       1069.       1070.       1063.       1085.       1095.    
   7    1105.       1090.       1075.       1072.       1070.       1065.       1065.       1069.       1090.       0.000    
   8    0.000       1080.       1070.       1068.       1063.       1060.       1063.       1067.       1090.       0.000    
   9    0.000       1075.       1065.       1062.       1058.       1052.       1055.       1065.       1090.       0.000    
  10    0.000       1070.       1060.       1055.       1046.       1046.       1044.       1060.       1088.       1100.    
  11    0.000       1055.       1050.       1045.       1041.       1042.       1040.       1050.       1075.       0.000    
  12    1027.       1028.       1028.       1032.       1032.       1033.       1032.       1040.       1060.       0.000    
  13    997.0       1004.       1008.       1014.       1020.       1027.       1032.       1038.       1050.       0.000    
  14    0.000       1030.       1040.       1045.       1050.       1050.       1050.       1050.       1044.       0.000    
  15    0.000       0.000       1080.       1080.       1080.       1080.       0.000       0.000       0.000       0.000    



             MODEL LAYER BOTTOM EL. FOR LAYER   1
 READING ON UNIT    8 WITH FORMAT: (10F7.0)            

            1           2           3           4           5           6           7           8           9          10
 ........................................................................................................................
   1    1000.       1000.       0.000       0.000       0.000       0.000       0.000       0.000       0.000       0.000    
   2    1000.       900.0       900.0       0.000       0.000       950.0       950.0       950.0       0.000       0.000    
   3    0.000       850.0       670.0       680.0       680.0       770.0       770.0       890.0       0.000       0.000    
   4    925.0       850.0       650.0       650.0       650.0       680.0       740.0       850.0       950.0       0.000    
   5    925.0       800.0       650.0       600.0       600.0       600.0       650.0       720.0       850.0       950.0    
   6    925.0       800.0       650.0       600.0       550.0       600.0       650.0       720.0       850.0       970.0    
   7    925.0       800.0       650.0       600.0       550.0       600.0       650.0       720.0       950.0       0.000    
   8    0.000       850.0       700.0       650.0       570.0       600.0       700.0       850.0       950.0       0.000    
   9    0.000       850.0       700.0       650.0       540.0       580.0       700.0       850.0       950.0       0.000    
  10    0.000       850.0       700.0       630.0       530.0       580.0       650.0       800.0       900.0       950.0    
  11    0.000       850.0       700.0       620.0       580.0       620.0       700.0       800.0       900.0       0.000    
  12    900.0       830.0       710.0       640.0       600.0       650.0       700.0       800.0       900.0       0.000    
  13    900.0       810.0       750.0       700.0       650.0       700.0       750.0       800.0       900.0       0.000    
  14    0.000       950.0       850.0       850.0       850.0       850.0       850.0       850.0       850.0       0.000    
  15    0.000       0.000       950.0       950.0       950.0       950.0       0.000       0.000       0.000       0.000    


 STRESS PERIOD     LENGTH       TIME STEPS     MULTIPLIER FOR DELT    SS FLAG
 ----------------------------------------------------------------------------
        1         2628000.          1                    1.000         SS
        2         2628000.         30                    1.000         TR
        3         2628000.         30                    1.000         TR
        4         2628000.         30                    1.000         TR
        5         2628000.         30                    1.000         TR
        6         2628000.         30                    1.000         TR
        7         2628000.         30                    1.000         TR
        8         2628000.         30                    1.000         TR
        9         2628000.         30                    1.000         TR
       10         2628000.         30                    1.000         TR
       11         2628000.         30                    1.000         TR
       12         2628000.         30                    1.000         TR
       13         2628000.         30                    1.000         TR
       14         2628000.         30                    1.000         TR
       15         2628000.         30                    1.000         TR
       16         2628000.         30                    1.000         TR
       17         2628000.         30                    1.000         TR
       18         2628000.         30                    1.000         TR
       19         2628000.         30                    1.000         TR
       20         2628000.         30                    1.000         TR
       21         2628000.         30                    1.000         TR
       22         2628000.         30                    1.000         TR
       23         2628000.         30                    1.000         TR
       24         2628000.         30                    1.000         TR
       25         2628000.         30                    1.000         TR

 COMBINED STEADY-STATE AND TRANSIENT SIMULATION



 
 #Test Simulation 2-- Example problem using the UZF1 Package                     
 #Modified from example Problem 1 of SFR1 documentation report                   
 THE FREE FORMAT OPTION HAS BEEN SELECTED



                     BOUNDARY ARRAY FOR LAYER   1
 READING ON UNIT   75 WITH FORMAT: (20I4)              

                1           2           3           4           5           6           7           8           9          10
 ............................................................................................................................
   1            1           1           0           0           0           0           0           0           0           0
   2            1           1           1           0           0           1           1           1           0           0
   3            0           1           1           1           1           1           1           1           0           0
   4            1           1           1           1           1           1           1           1           1           0
   5            1           1           1           1           1           1           1           1           1           1
   6            1           1           1           1           1           1           1           1           1           1
   7            1           1           1           1           1           1           1           1           1           0
   8            0           1           1           1           1           1           1           1           1           0
   9            0           1           1           1           1           1           1           1           1           0
  10            0           1           1           1           1           1           1           1           1           1
  11            0           1           1           1           1           1           1           1           1           0
  12            1           1           1           1           1           1           1           1           1           0
  13            1           1           1           1           1           1           1           1           1           0
  14            0           1           1           1           1           1           1           1           1           0
  15            0           0           1           1           1           1           0           0           0           0

 AQUIFER HEAD WILL BE SET TO   6999.0     AT ALL NO-FLOW NODES (IBOUND=0).



                       INITIAL HEAD FOR LAYER   1
 READING ON UNIT   75 WITH FORMAT: (10F8.0)            

            1           2           3           4           5           6           7           8           9          10
 ........................................................................................................................
   1    1093.       1089.       6999.       6999.       6999.       6999.       6999.       6999.       6999.       6999.    
   2    1090.       1087.       1081.       6999.       6999.       1072.       1071.       1071.       6999.       6999.    
   3    6999.       1079.       1078.       1074.       1072.       1071.       1069.       1068.       6999.       6999.    
   4    1069.       1071.       1070.       1067.       1065.       1064.       1064.       1066.       1066.       6999.    
   5    1065.       1064.       1063.       1062.       1061.       1061.       1060.       1062.       1066.       1068.    
   6    1060.       1058.       1057.       1056.       1056.       1057.       1057.       1059.       1062.       1066.    
   7    1056.       1053.       1052.       1051.       1051.       1052.       1053.       1055.       1056.       6999.    
   8    6999.       1046.       1046.       1046.       1046.       1046.       1048.       1050.       1050.       6999.    
   9    6999.       1039.       1039.       1039.       1040.       1041.       1042.       1043.       1044.       6999.    
  10    6999.       1031.       1032.       1033.       1034.       1035.       1037.       1038.       1039.       1042.    
  11    6999.       1021.       1023.       1027.       1029.       1030.       1032.       1034.       1036.       6999.    
  12    1001.       1009.       1015.       1020.       1023.       1026.       1029.       1030.       1034.       6999.    
  13    994.5      1000.0       1007.       1013.       1019.       1024.       1029.       1034.       1036.       6999.    
  14    6999.       1004.       1009.       1014.       1019.       1024.       1029.       1035.       1039.       6999.    
  15    6999.       6999.       1012.       1015.       1019.       1022.       6999.       6999.       6999.       6999.    

 OUTPUT CONTROL IS SPECIFIED ONLY AT TIME STEPS FOR WHICH OUTPUT IS DESIRED
 HEADS WILL BE SAVED WITH FORMAT: (10F10.3)           
 SAVED HEADS WILL BE LABELED
 HEAD PRINT FORMAT CODE IS   4    DRAWDOWN PRINT FORMAT CODE IS   0
 HEADS WILL BE SAVED ON UNIT   62    DRAWDOWNS WILL BE SAVED ON UNIT    0
 # NWT Input File
 # Test Problem 3 for MODFLOW-NWT
 #HEADTOL  FLUXTOL MAXITEROUT THICKFACT LINMETH IPRNWT IBOTAV OPTIONS DBDREDUCE DBDINCREASE DBDGAMMA MOMFACT BACKFLAG MAXBACKITER BACKTOL BACKREDUCE

 NWT1 -- Newton Solver, VERSION 1.1.3, 8/01/2017
         INPUT READ FROM UNIT 13

 SPECIFIED OPTION:
 SOLVER INPUT VALUES ARE SPECIFIED BY USER
 ***XMD linear solver will be used***
 
   CONVERGENCE CRITERION OF   0.100000E-04 FOR HEAD SOLUTION
   AND A TOLERANCE OF   0.100000E+03 FOR FLOW SOLUTION AND 
   A MAXIMUM OF   200 OUTER ITERATIONS. 


   D-B-D REDUCTION FACTOR OF    0.990000E+00 AND 
   A D-B-D INCREASE FACTOR OF    0.100000E-04 AND 
   A D-B-D RELAXATION OF    0.000000E+00 AND 
   A MOMENTUM FACTOR OF    0.100000E+00 .


 ***BACKTRACKING IS INACTIVE***
 XMD -- LINEAR SOLUTION BY XMD PACKAGE VERSION 1.30
     BY MOTOMU IBARAKI, OHIO STATE UNIVERSITY, COLOMBUS, OH
                 INPUT READ FROM UNIT 13
 ACCELERATION METHOD                    (IACL) =         2
 NODE ORDERING FLAG                   (NORDER) =         0
 LEVEL OF FILL                         (LEVEL) =        10
 MAXIMUM NUMBER OF ORTHOGONALIZATIONS  (NORTH) =        10
 INDEX FOR USING REDUCED SYSTEM      (IREDSYS) =         1
 RESID. REDUCTION CONVERGE CRITERION  (RRCTOL) =  0.000000E+00
 INDEX FOR USING DROP TOLERANCE     (IDROPTOL) =         1
 DROP TOLERANCE VALUE                  (EPSRN) =  0.500000E-02
 CONVERGENCE CRITERIA OF           (HCLOSEXMD) =  0.100000E-03
 MAX. NUMBER OF LINEAR ITERATIONS  (MXITERXMD) =        50


 UPW1 -- UPSTREAM WEIGHTING FLOW PACKAGE, VERSION 1.1.3, 8/01/2017
         INPUT READ FROM UNIT  7

 #Layer-Property Flow Package input for test simulation 2
 CELL-BY-CELL FLOWS WILL BE SAVED ON UNIT  102
 No named parameters

   LAYER FLAGS:
 LAYER       LAYTYP          LAYAVG    CHANI           LAYVKA           LAYWET
 ---------------------------------------------------------------------------
    1             1             0     1.000E+00             0             0

   INTERPRETATION OF LAYER FLAGS:
                        INTERBLOCK     HORIZONTAL    DATA IN
         LAYER TYPE   TRANSMISSIVITY   ANISOTROPY   ARRAY VKA   WETTABILITY
 LAYER   (LAYTYP)        (LAYAVG)      (CHANI)     (LAYVKA)       (LAYWET)
 ---------------------------------------------------------------------------
    1   CONVERTIBLE      HARMONIC     1.000E+00    VERTICAL K  NON-WETTABLE



              HYD. COND. ALONG ROWS FOR LAYER   1
 READING ON UNIT    7 WITH FORMAT: (10F5.0)            

            1           2           3           4           5           6           7           8           9          10
 ........................................................................................................................
   1   2.0000E-03  2.0000E-03   0.000       0.000       0.000       0.000       0.000       0.000       0.000       0.000    
   2   4.0000E-04  2.0000E-03  2.0000E-03   0.000       0.000      4.0000E-04  4.0000E-04  4.0000E-04   0.000       0.000    
   3    0.000      4.0000E-04  2.0000E-03  2.0000E-03  4.0000E-04  4.0000E-04  4.0000E-04  4.0000E-04   0.000       0.000    
   4   4.0000E-04  4.0000E-04  4.0000E-04  2.0000E-03  2.0000E-03  2.0000E-03  4.0000E-04  4.0000E-04  4.0000E-04   0.000    
   5   4.0000E-04  4.0000E-04  4.0000E-04  2.0000E-03  2.0000E-03  2.0000E-03  2.0000E-03  2.0000E-03  2.0000E-03  2.0000E-03
   6   4.0000E-04  4.0000E-04  4.0000E-04  2.0000E-03  2.0000E-03  2.0000E-03  2.0000E-03  2.0000E-03  4.0000E-04  4.0000E-04
   7   4.0000E-04  4.0000E-04  4.0000E-04  2.0000E-03  2.0000E-03  2.0000E-03  2.0000E-03  2.0000E-03  4.0000E-04   0.000    
   8    0.000      4.0000E-04  4.0000E-04  2.0000E-03  2.0000E-03  2.0000E-03  2.0000E-03  4.0000E-04  4.0000E-04   0.000    
   9    0.000      4.0000E-04  4.0000E-04  2.0000E-03  2.0000E-03  2.0000E-03  2.0000E-03  4.0000E-04  4.0000E-04   0.000    
  10    0.000      4.0000E-04  4.0000E-04  2.0000E-03  2.0000E-03  2.0000E-03  2.0000E-03  4.0000E-04  4.0000E-04  4.0000E-04
  11    0.000      4.0000E-04  4.0000E-04  2.0000E-03  2.0000E-03  2.0000E-03  2.0000E-03  4.0000E-04  4.0000E-04   0.000    
  12   4.0000E-04  4.0000E-04  2.0000E-03  2.0000E-03  2.0000E-03  2.0000E-03  2.0000E-03  4.0000E-04  4.0000E-04   0.000    
  13   2.0000E-03  2.0000E-03  2.0000E-03  2.0000E-03  2.0000E-03  2.0000E-03  2.0000E-03  2.0000E-03  2.0000E-03   0.000    
  14    0.000      4.0000E-04  4.0000E-04  4.0000E-04  4.0000E-04  4.0000E-04  4.0000E-04  4.0000E-04  2.0000E-03   0.000    
  15    0.000       0.000      4.0000E-04  4.0000E-04  4.0000E-04  4.0000E-04   0.000       0.000       0.000       0.000    

      VERTICAL HYD. COND. =  1.000000E-06 FOR LAYER   1

         SPECIFIC STORAGE =  1.000000E-06 FOR LAYER   1



                     SPECIFIC YIELD FOR LAYER   1
 READING ON UNIT    7 WITH FORMAT: (10F5.0)            

            1           2           3           4           5           6           7           8           9          10
 ........................................................................................................................
   1   0.2000      0.2000       0.000       0.000       0.000       0.000       0.000       0.000       0.000       0.000    
   2   0.1000      0.2000      0.2000       0.000       0.000      0.1000      0.1000      0.1000       0.000       0.000    
   3    0.000      0.1000      0.2000      0.2000      0.1000      0.1000      0.1000      0.1000       0.000       0.000    
   4   0.1000      0.1000      0.1000      0.2000      0.2000      0.2000      0.1000      0.1000      0.1000       0.000    
   5   0.1000      0.1000      0.1000      0.2000      0.2000      0.2000      0.2000      0.2000      0.2000      0.2000    
   6   0.1000      0.1000      0.1000      0.2000      0.2000      0.2000      0.2000      0.2000      0.1000      0.1000    
   7   0.1000      0.1000      0.1000      0.2000      0.2000      0.2000      0.2000      0.2000      0.1000       0.000    
   8    0.000      0.1000      0.1000      0.2000      0.2000      0.2000      0.2000      0.1000      0.1000       0.000    
   9    0.000      0.1000      0.1000      0.2000      0.2000      0.2000      0.2000      0.1000      0.1000       0.000    
  10    0.000      0.1000      0.1000      0.2000      0.2000      0.2000      0.2000      0.1000      0.1000      0.1000    
  11    0.000      0.1000      0.1000      0.2000      0.2000      0.2000      0.2000      0.1000      0.1000       0.000    
  12   0.1000      0.1000      0.2000      0.2000      0.2000      0.2000      0.2000      0.1000      0.1000       0.000    
  13   0.2000      0.2000      0.2000      0.2000      0.2000      0.2000      0.2000      0.2000      0.2000       0.000    
  14    0.000      0.1000      0.1000      0.1000      0.1000      0.1000      0.1000      0.1000      0.2000       0.000    
  15    0.000       0.000      0.1000      0.1000      0.1000      0.1000       0.000       0.000       0.000       0.000    

 WEL -- WELL PACKAGE FOR NWT VERSION 1.1.2,  9/15/2016 INPUT READ FROM UNIT   16
 #Well Package input for test simulation 2
 No named parameters

 PROCESSING                  OPTIONS
  Option to pump supplmental water for surface diversion shortfall is activted.  A total of          1supplemental wells are active
  Option to apply pumped water as irrigtion is active. 'Pumped irrigation water will be applied to          1 UZF Cells.

 END PROCESSING                  OPTIONS
 MAXIMUM OF     10 ACTIVE WELLS AT ONE TIME
 No named parameters
  PHIRAMP WILL BE SET TO A DEFAULT VALUE OF 1.0E-5
  WELLS WITH REDUCED PUMPING WILL BE REPORTED TO THE MAIN LISTING FILE


     0 Well parameters

 GHB -- GENERAL-HEAD BOUNDARY PACKAGE, VERSION 7, 5/2/2005
         INPUT READ FROM UNIT   17
 No named parameters
 MAXIMUM OF      2 ACTIVE GHB CELLS AT ONE TIME
 CELL-BY-CELL FLOWS WILL BE PRINTED WHEN ICBCFL NOT 0


     0 GHB parameters

 SFR7 -- STREAMFLOW ROUTING PACKAGE, VERSION 1.0.5, 2012-04-05
         INPUT READ FROM UNIT  15
 #SFR2 Package input for Testing supplimental pumping and irrigation
 No named parameters

 PROCESSING SFR2 OPTIONS
 
Stream loss will be calculated as a factor of the streambed hydraulic conductivity. Multiplication factor is equal to     0.1000000015E+00
          2 Specified inflow files will be read with a maximum of        110 row entries per file
 Option to apply diverted water as irrigtion is active.diverted irrigation water will be applied to          1 UZF Cells.

 END PROCESSING SFR2 OPTIONS


 NUMBER OF STREAM REACHES IS   37

 NUMBER OF STREAM SEGMENTS IS    9

 NUMBER OF STREAM PARAMETERS IS    0

 NUMBER OF STREAM SEGMENTS DEFINED USING PARAMETERS IS              0

 MAXIMUM ERROR FOR STREAM LEAKAGE RATES IS  1.00E-06

 CONSTANT FOR MANNINGS EQUATION IS  1.4860E+00



 STREAM OUTPUT WILL BE WRITTEN TO FILE ON UNIT   81


   STREAM NETWORK DESCRIPTION: 

   LAYER    ROW    COL   SEGMENT   REACH     LENGTH
                          NUMBER   NUMBER    IN CELL        
   --------------------------------------------------
      1      1      1       1        1    4.5000E+03
      1      2      2       1        2    7.0000E+03
      1      3      3       1        3    6.0000E+03
      1      3      4       1        4    5.5500E+03
      1      4      5       2        1    6.5000E+03
      1      5      6       2        2    5.0000E+03
      1      6      6       2        3    5.0000E+03
      1      7      6       2        4    5.0000E+03
      1      8      6       2        5    5.0000E+03
      1      3      5       3        1    5.0000E+03
      1      3      6       3        2    5.0000E+03
      1      3      7       3        3    4.5000E+03
      1      4      8       3        4    6.0000E+03
      1      5      8       3        5    5.0000E+03
      1      6      8       3        6    2.0000E+03
      1      5     10       4        1    2.5000E+03
      1      5      9       4        2    5.0000E+03
      1      6      8       4        3    3.5000E+03
      1      6      8       5        1    4.0000E+03
      1      7      7       5        2    5.0000E+03
      1      8      7       5        3    3.5000E+03
      1      8      6       5        4    2.5000E+03
      1      9      6       6        1    5.0000E+03
      1     10      7       6        2    5.0000E+03
      1     11      7       6        3    5.0000E+03
      1     12      7       6        4    5.0000E+03
      1     13      7       6        5    2.0000E+03
      1     14      9       7        1    5.0000E+03
      1     13      8       7        2    5.5000E+03
      1     13      7       7        3    5.0000E+03
      1     13      6       8        1    5.0000E+03
      1     13      5       8        2    5.0000E+03
      1     13      4       8        3    5.0000E+03
      1     13      3       8        4    5.0000E+03
      1     13      2       8        5    5.0000E+03
      1     13      1       8        6    3.0000E+03
      1      6      8       9        1    5.0000E+01




 UZF1 -- UNSATURATED FLOW PACKAGE, VERSION 1.4, 02/06/2012
         INPUT READ FROM UNIT 19
 #UZF Package input for test simulation 2
 No named parameters

 PROCESSING UZF OPTIONS
 
 INITIAL WATER CONTENT (THTI) WILL BE 
READ FOR THE FIRST SS OR TR STRESS PERIOD
 
 
 RESIDUAL WATER CONTENT (THTR) WILL BE 
READ AND USED FOR THE FIRST TRANSIENT STRESS 
PERIOD
 
  OUTPUT WILL BE WRITTEN TO NETRECH AND NETDIS FILES WITH UNIT NUMBERS        100       101, RESPECTIVELY
 
 A SQUARE ET FUNCTION WILL BE USED TO SIMULATE GW ET
 
           1
INFILTRATION WILL BE REJECTED USING 
LAND SURFACE K
 
 
HYDRAULIC CONDUCTIVITY OF LAND SURFACE 
WILL BE READ
 
 
AGRICULTURAL DEMANDS WILL BE 
CALCULATED USING ET DEFICIT
 

 END PROCESSING UZF OPTIONS



            AREAL EXTENT OF UZ FLOW
 READING ON UNIT   19 WITH FORMAT: (20I4)              

                1           2           3           4           5           6           7           8           9          10
 ............................................................................................................................
   1            1           1           0           0           0           0           0           0           0           0
   2            1           1           1           0           0           1           1           1           0           0
   3            0           1           1           1           1           1           1           1           0           0
   4            1           1           1           1           1           1           1           1           1           0
   5            1           1           1           1           1           1           1           1           1           1
   6            1           1           1           1           1           1           1           1           1           1
   7            1           1           1           1           1           1           1           1           1           0
   8            0           1           1           1           1           1           1           1           1           0
   9            0           1           1           1           1           1           1           1           1           0
  10            0           1           1           1           1           1           1           1           1           1
  11            0           1           1           1           1           1           1           1           1           0
  12            1           1           1           1           1           1           1           1           1           0
  13            1           1           1           1           1           1           1           1           1           0
  14            0           1           1           1           1           1           1           1           1           0
  15            0           0           1           1           1           1           0           0           0           0
 OPTION 1 -- RECHARGE IN UZF TO TOP LAYER ONLY 



            ROUTING OVERLAND RUNOFF
 READING ON UNIT   19 WITH FORMAT: (20I4)              

                1           2           3           4           5           6           7           8           9          10
 ............................................................................................................................
   1            1           1           0           0           0           0           0           0           0           0
   2            1           1           1           0           0           3           3           3           0           0
   3            0           1           1           1           3           3           3           3           0           0
   4            8           8           2           2           2           2           2           3           3           0
   5            8           8           8           8           2           2           2           3           4           4
   6            8           8           8           8           8           2           2           4           4           4
   7            8           8           8           8           8           2           5           5           5           0
   8            0           8           8           8           8           2           5           5           5           0
   9            0           8           8           8           8           6           6           6           6           0
  10            0           8           8           8           8           6           6           6           6           6
  11            0           8           8           8           8           8           6           6           7           0
  12            8           8           8           8           8           8           6           7           7           0
  13            8           8           8           8           8           8           7           7           7           0
  14            0           8           8           8           8           8           7           7           7           0
  15            0           0           8           8           8           8           0           0           0           0



               SATURATED VERTICAL K
 READING ON UNIT   19 WITH FORMAT: (10F4.0)            

            1           2           3           4           5           6           7           8           9          10
 ........................................................................................................................
   1   5.0000E-06  5.0000E-06   0.000       0.000       0.000       0.000       0.000       0.000       0.000       0.000    
   2   5.0000E-06  5.0000E-06  5.0000E-06   0.000       0.000      5.0000E-06  5.0000E-06  5.0000E-06   0.000       0.000    
   3    0.000      5.0000E-06  5.0000E-06  5.0000E-06  5.0000E-06  5.0000E-06  5.0000E-06  5.0000E-06   0.000       0.000    
   4   5.0000E-06  5.0000E-06  5.0000E-06  5.0000E-06  5.0000E-06  5.0000E-06  5.0000E-06  5.0000E-06  5.0000E-06   0.000    
   5   5.0000E-06  5.0000E-06  5.0000E-06  5.0000E-06  5.0000E-06  5.0000E-06  5.0000E-06  5.0000E-06  5.0000E-06  5.0000E-06
   6   5.0000E-06  5.0000E-06  5.0000E-06  5.0000E-06  5.0000E-06  5.0000E-06  5.0000E-06  5.0000E-06  5.0000E-06  5.0000E-06
   7   5.0000E-06  5.0000E-06  5.0000E-06  5.0000E-06  5.0000E-06  5.0000E-06  5.0000E-06  5.0000E-06  5.0000E-06   0.000    
   8    0.000      5.0000E-06  5.0000E-06  5.0000E-06  5.0000E-06  5.0000E-06  5.0000E-06  5.0000E-06  5.0000E-06   0.000    
   9    0.000      5.0000E-06  5.0000E-06  5.0000E-06  5.0000E-06  5.0000E-06  5.0000E-06  5.0000E-06  5.0000E-06   0.000    
  10    0.000      5.0000E-06  5.0000E-06  5.0000E-06  5.0000E-06  5.0000E-06  5.0000E-06  5.0000E-06  5.0000E-06  5.0000E-06
  11    0.000      5.0000E-06  5.0000E-06  5.0000E-06  5.0000E-06  5.0000E-06  5.0000E-06  5.0000E-06  5.0000E-06   0.000    
  12   5.0000E-06  5.0000E-06  5.0000E-06  5.0000E-06  5.0000E-06  5.0000E-06  5.0000E-06  5.0000E-06  5.0000E-06   0.000    
  13   5.0000E-06  5.0000E-06  5.0000E-06  5.0000E-06  5.0000E-06  5.0000E-06  5.0000E-06  5.0000E-06  5.0000E-06   0.000    
  14    0.000      5.0000E-06  5.0000E-06  5.0000E-06  5.0000E-06  5.0000E-06  5.0000E-06  5.0000E-06  5.0000E-06   0.000    
  15    0.000       0.000      5.0000E-06  5.0000E-06  5.0000E-06  5.0000E-06   0.000       0.000       0.000       0.000    



            LAND SURFACE VERTICAL K
 READING ON UNIT   19 WITH FORMAT: (10F4.0)            

            1           2           3           4           5           6           7           8           9          10
 ........................................................................................................................
   1   5.0000E-06  5.0000E-06   0.000       0.000       0.000       0.000       0.000       0.000       0.000       0.000    
   2   5.0000E-06  5.0000E-06  5.0000E-06   0.000       0.000      5.0000E-06  5.0000E-06  5.0000E-06   0.000       0.000    
   3    0.000      5.0000E-06  5.0000E-06  5.0000E-06  5.0000E-06  5.0000E-06  5.0000E-06  5.0000E-06   0.000       0.000    
   4   5.0000E-06  5.0000E-06  5.0000E-06  5.0000E-06  5.0000E-06  5.0000E-06  5.0000E-06  5.0000E-06  5.0000E-06   0.000    
   5   5.0000E-06  5.0000E-06  5.0000E-06  5.0000E-06  5.0000E-06  5.0000E-06  5.0000E-06  5.0000E-06  5.0000E-06  5.0000E-06
   6   5.0000E-06  5.0000E-06  5.0000E-06  5.0000E-06  5.0000E-06  5.0000E-06  5.0000E-06  5.0000E-06  5.0000E-06  5.0000E-06
   7   5.0000E-06  5.0000E-06  5.0000E-06  5.0000E-06  5.0000E-06  5.0000E-06  5.0000E-06  5.0000E-06  5.0000E-06   0.000    
   8    0.000      5.0000E-06  5.0000E-06  5.0000E-06  5.0000E-06  5.0000E-06  5.0000E-06  5.0000E-06  5.0000E-06   0.000    
   9    0.000      5.0000E-06  5.0000E-06  5.0000E-06  5.0000E-06  5.0000E-06  5.0000E-06  5.0000E-06  5.0000E-06   0.000    
  10    0.000      5.0000E-06  5.0000E-06  5.0000E-06  5.0000E-06  5.0000E-06  5.0000E-06  5.0000E-06  5.0000E-06  5.0000E-06
  11    0.000      5.0000E-06  5.0000E-06  5.0000E-06  5.0000E-06  5.0000E-06  5.0000E-06  5.0000E-06  5.0000E-06   0.000    
  12   5.0000E-06  5.0000E-06  5.0000E-06  5.0000E-06  5.0000E-06  5.0000E-06  5.0000E-06  5.0000E-06  5.0000E-06   0.000    
  13   5.0000E-06  5.0000E-06  5.0000E-06  5.0000E-06  5.0000E-06  5.0000E-06  5.0000E-06  5.0000E-06  5.0000E-06   0.000    
  14    0.000      5.0000E-06  5.0000E-06  5.0000E-06  5.0000E-06  5.0000E-06  5.0000E-06  5.0000E-06  5.0000E-06   0.000    
  15    0.000       0.000      5.0000E-06  5.0000E-06  5.0000E-06  5.0000E-06   0.000       0.000       0.000       0.000    

     BROOKS-COREY EPSILON =   5.50000    

  SATURATED WATER CONTENT =  0.220000    

   RESIDUAL WATER CONTENT =  5.000000E-02

    INITIAL WATER CONTENT =  0.100000    

UNSATURATED FLOW RESULTS WILL BE PRINTED TO SEPARATE FILES FOR SELECTED MODEL CELLS, AND TIME STEPS AS DEFINED BY OUTPUT CONTROL PACKAGE 

SELECTED MODEL CELLS ARE: 
 ROW NUMBER  COLUMN NUMBER  FORTRAN UNIT NUMBER  OUTPUT OPTION


       3             6                 65                 1
       6             8                 66                 2
       6             7                 67                 3
       0             0                 68                 4



   9 GAGING STATIONS WERE SPECIFIED.
     (Lakes are identified by a negative value of the Lake Number)
     RECORDS WILL BE WRITTEN TO SEPARATE OUTPUT FILES REPRESENTED BY FOLLOWING UNIT NUMBERS:

 Stream Gages:
  GAGE #   SEGMENT   REACH   UNIT   OUTTYPE
       1       1       4      83       1
       2       2       3      84       1
       3       3       5      85       1
       4       4       3      86       1
       5       5       4      87       4
       6       6       5      88       4
       7       7       3      89       4
       8       8       6      90       4
       9       9       1      91       5




1
                            STRESS PERIOD NO.    1, LENGTH =   2628000.    
                            -----------------------------------------------

                              NUMBER OF TIME STEPS =     1

                               MULTIPLIER FOR DELT =     1.000

                            INITIAL TIME STEP SIZE =   2628000.    

 WELL NO.  LAYER   ROW   COL   STRESS RATE         
 --------------------------------------------------
      1      1      6      4       0.000    
      2      1      6      7       0.000    
      3      1      7      4       0.000    
      4      1      7      5       0.000    
      5      1      8      4       0.000    
      6      1      8      5       0.000    
      7      1      9      4       0.000    
      8      1      9      5       0.000    
      9      1     10      4       0.000    
     10      1     10      5       0.000    
 #WELL NUMBER, numsegs, supfact, SEGMENT NUMBER
 #
 # WELL#,NUMCELLS,EFF_FACT1,percent1, ROW1,COL1,EFF_FACT1,percent1, ROW2,COL2,ETC.

     10 WELLS

 BOUND. NO. LAYER   ROW   COL     STAGE      CONDUCTANCE         
 ----------------------------------------------------------------
      1      1     13      1       988.0          0.3800E-01
      2      1     14      9       1045.          0.3800E-01

      2 GHB CELLS



 CLASSIFICATION & COUNT OF STREAM SEGMENTS BASED ON SOURCE OF INFLOW:

                HEADWATER     DIVERSION     RECEIVES TRIBUTARY FLOW
                ---------     ---------     -----------------------
                     3              2               4



                    INPUT DATA FOR EACH STREAM SEGMENT
 ---------------------------------------------------------------------------------------------

 SEGMENT    SEG.     INFLOW   OVERLAND   STREAM    STREAM   ICALC  OUTFLOW  DIVERSION PRIORITY
    NO.    LENGTH     RATE     RUNOFF      ET       PPT.    METH.  TO SEG.  FROM SEG.    NO.

      1  2.305E+04 2.500E+01 0.000E+00 0.000E+00 0.000E+00    4        2        0        0
      2  2.650E+04 0.000E+00 0.000E+00 0.000E+00 0.000E+00    1        6        0        0
      3  2.750E+04 2.000E+00 0.000E+00 0.000E+00 0.000E+00    0        5        1        0
      4  1.100E+04 1.000E+01 0.000E+00 0.000E+00 0.000E+00    1        5        0        0
      5  1.500E+04 0.000E+00 0.000E+00 0.000E+00 0.000E+00    3        6        0        0
      6  2.200E+04 0.000E+00 0.000E+00 0.000E+00 0.000E+00    1        8        0        0
      7  1.550E+04 1.500E+02 0.000E+00 0.000E+00 0.000E+00    2        8        0        0
      8  2.800E+04 0.000E+00 0.000E+00 0.000E+00 0.000E+00    2        0        0        0
      9  5.000E+01 0.000E+00 0.000E+00 0.000E+00 0.000E+00    1        0        2        0


         STREAMBED PROPERTIES AND STREAM DIMENSIONS

 SEGMENT     BED HYD. COND.      BED THICKNESS     ELEV.-TOP OF BED     WIDTH OF STREAM     DEPTH OF STREAM    STREAM ROUGHNESS
    No.     UPPER     LOWER     UPPER     LOWER     UPPER     LOWER     UPPER     LOWER     UPPER     LOWER   CHANNEL      BANK

     1  3.000E-05 3.000E-05 3.000E+00 3.000E+00 1.095E+03 1.075E+03
     2  3.000E-05 3.000E-05 3.000E+00 3.000E+00 1.075E+03 1.050E+03 1.200E+01 1.200E+01                     3.000E-02
     3  3.000E-05 3.000E-05 2.000E+00 2.000E+00 1.075E+03 1.060E+03 1.000E+01 6.000E+00 2.000E+00 1.000E+00
     4  3.000E-05 3.000E-05 3.000E+00 3.000E+00 1.080E+03 1.060E+03 1.000E+01 1.000E+01                     3.000E-02
     5  3.000E-05 3.000E-05 3.000E+00 3.000E+00 1.060E+03 1.045E+03
     6  3.000E-05 3.000E-05 3.000E+00 3.000E+00 1.045E+03 1.025E+03 1.200E+01 1.200E+01                     3.000E-02
     7  6.000E-05 6.000E-05 3.000E+00 3.000E+00 1.040E+03 1.025E+03                                         2.500E-02 4.500E-02
     8  6.000E-05 6.000E-05 3.000E+00 3.000E+00 1.025E+03 9.900E+02                                         2.500E-02 4.500E-02
     9  0.000E+00 0.000E+00 3.000E+00 3.000E+00 1.079E+03 1.078E+03 4.000E+00 4.000E+00                     3.000E-02

  EIGHT POINT CROSS-SECTION DATA FOR SEGMENTS WITH ICALC = 2
    X VALUES X VALUES START FROM LEFT SIDE LOOKING DOWNSTREAM

     SEGMENT NO.        X1        X2        X3        X4        X5        X6        X7        X8
            7      0.000E+00 1.000E+01 8.000E+01 1.000E+02 1.500E+02 1.700E+02 2.400E+02 2.500E+02
            8      0.000E+00 1.000E+01 8.000E+01 1.000E+02 1.500E+02 1.700E+02 2.400E+02 2.500E+02

    Z VALUES ARE RELATIVE TO STREAMBED ELEVATION

     SEGMENT NO.          Z1        Z2        Z3        Z4        Z5        Z6        Z7        Z8
            7      2.000E+01 1.300E+01 1.000E+01 2.000E+00 0.000E+00 1.000E+01 1.300E+01 2.000E+01
            8      2.500E+01 1.700E+01 1.300E+01 4.000E+00 0.000E+00 1.000E+01 1.600E+01 2.000E+01

 STREAMFLOW RELATION WITH DEPTH IS BASED ON EQUATION Q = CDPTH*(DEPTH)**FDPTH
 STREAMFLOW RELATION WITH WIDTH IS BASED ON EQUATION Q = AWDTH*(WIDTH)**BWDTH

 SEGMENT NO.      CDPTH     FDPTH    AWDTH     BWDTH

          5 3.000E-01 3.500E-01 3.800E+00 6.000E-01

 STREAMFLOW RELATION WITH DEPTH AND WIDTH IS BASED ON TABULATED VALUES

  SEGMENT NO.   STREAMFLOW       DEPTH       WIDTH

          1     5.0000E-01   2.5000E-01   3.0000E+00
          1     1.0000E+00   4.0000E-01   3.5000E+00
          1     2.0000E+00   5.5000E-01   4.2000E+00
          1     4.0000E+00   7.0000E-01   5.3000E+00
          1     7.0000E+00   8.0000E-01   7.0000E+00
          1     1.0000E+01   9.0000E-01   8.5000E+00
          1     2.0000E+01   1.1000E+00   1.2000E+01
          1     3.0000E+01   1.2500E+00   1.4000E+01
          1     5.0000E+01   1.4000E+00   1.7000E+01
          1     7.5000E+01   1.7000E+00   2.0000E+01
          1     1.0000E+02   1.8000E+00   2.2000E+01



TABULAR INFLOWS WERE READ FOR SEGMENT      1
FROM FILE UNIT NUMBER     55

          TIMES                    INFLOWS
             0.0000000000         0.0000000000
       2630000.0000000000        22.0000000000
       5260000.0000000000        42.0000000000
       7880000.0000000000        77.0000000000
      10500000.0000000000        28.0000000000
      13100000.0000000000        99.0000000000
      15800000.0000000000        63.0000000000
      18400000.0000000000        35.0000000000
      21000000.0000000000        21.0000000000
      23700000.0000000000         7.0000000000
      26300000.0000000000         3.5000000000
      28900000.0000000000         3.2999999523
      31500000.0000000000         3.0999999046
      34200000.0000000000        10.5000000000
      36800000.0000000000        21.0000000000
      39400000.0000000000        98.0000000000
      42000000.0000000000        35.0000000000
      44700000.0000000000        63.0000000000
      47300000.0000000000        28.0000000000
      49900000.0000000000        14.0000000000
      52600000.0000000000         7.0000000000
      55200000.0000000000         3.5000000000
      57800000.0000000000         3.2000000477
      60400000.0000000000         3.5000000000
      63100000.0000000000         3.5000000000
      65700000.0000000000        14.0000000000
TABULAR INFLOWS WERE READ FOR SEGMENT      9
FROM FILE UNIT NUMBER     56

          TIMES                    INFLOWS
             0.0000000000         0.0000000000
        600000.0000000000         0.0000000000
       1200000.0000000000         0.0000000000
       1800000.0000000000         0.0000000000
       2400000.0000000000         0.0000000000
       3000000.0000000000         0.0000000000
       3600000.0000000000         0.0000000000
       4200000.0000000000         0.0000000000
       4800000.0000000000         0.0000000000
       5400000.0000000000         0.0000000000
       6000000.0000000000         0.0000000000
       6600000.0000000000         0.0000000000
       7200000.0000000000         0.0000000000
       7800000.0000000000         0.0000000000
       8400000.0000000000         0.0000000000
       9000000.0000000000         0.0000000000
       9600000.0000000000         0.0000000000
      10200000.0000000000         0.0000000000
      10800000.0000000000         0.0000000000
      11400000.0000000000         0.0000000000
      12000000.0000000000        20.0000000000
      12600000.0000000000        20.0000000000
      13200000.0000000000        20.0000000000
      13800000.0000000000        20.0000000000
      14400000.0000000000        20.0000000000
      15000000.0000000000        20.0000000000
      15600000.0000000000        20.0000000000
      16200000.0000000000        20.0000000000
      16800000.0000000000        20.0000000000
      17400000.0000000000        20.0000000000
      18000000.0000000000        20.0000000000
      18600000.0000000000        20.0000000000
      19200000.0000000000        20.0000000000
      19800000.0000000000        20.0000000000
      20400000.0000000000        20.0000000000
      21000000.0000000000        20.0000000000
      21600000.0000000000        20.0000000000
      22200000.0000000000        20.0000000000
      22800000.0000000000        20.0000000000
      23400000.0000000000        20.0000000000
      24000000.0000000000        20.0000000000
      24600000.0000000000        20.0000000000
      25200000.0000000000        20.0000000000
      25800000.0000000000         0.0000000000
      26400000.0000000000         0.0000000000
      27000000.0000000000         0.0000000000
      27600000.0000000000         0.0000000000
      28200000.0000000000         0.0000000000
      28800000.0000000000         0.0000000000
      29400000.0000000000         0.0000000000
      30000000.0000000000         0.0000000000
      30600000.0000000000         0.0000000000
      31200000.0000000000         0.0000000000
      31800000.0000000000         0.0000000000
      32400000.0000000000         0.0000000000
      33000000.0000000000         0.0000000000
      33600000.0000000000         0.0000000000
      34200000.0000000000         0.0000000000
      34800000.0000000000         0.0000000000
      35400000.0000000000         0.0000000000
      36000000.0000000000         0.0000000000
      36600000.0000000000         0.0000000000
      37200000.0000000000         0.0000000000
      37800000.0000000000         0.0000000000
      38400000.0000000000         0.0000000000
      39000000.0000000000         0.0000000000
      39600000.0000000000         0.0000000000
      40200000.0000000000         0.0000000000
      40800000.0000000000         0.0000000000
      41400000.0000000000         0.0000000000
      42000000.0000000000         0.0000000000
      42600000.0000000000         0.0000000000
      43200000.0000000000        20.0000000000
      43800000.0000000000        20.0000000000
      44400000.0000000000        20.0000000000
      45000000.0000000000        20.0000000000
      45600000.0000000000        20.0000000000
      46200000.0000000000        20.0000000000
      46800000.0000000000        20.0000000000
      47400000.0000000000        20.0000000000
      48000000.0000000000        20.0000000000
      48600000.0000000000        20.0000000000
      49200000.0000000000        20.0000000000
      49800000.0000000000        20.0000000000
      50400000.0000000000        20.0000000000
      51000000.0000000000        20.0000000000
      51600000.0000000000        20.0000000000
      52200000.0000000000        20.0000000000
      52800000.0000000000        20.0000000000
      53400000.0000000000        20.0000000000
      54000000.0000000000        20.0000000000
      54600000.0000000000        20.0000000000
      55200000.0000000000        20.0000000000
      55800000.0000000000        20.0000000000
      56400000.0000000000        20.0000000000
      57000000.0000000000         0.0000000000
      57600000.0000000000         0.0000000000
      58200000.0000000000         0.0000000000
      58800000.0000000000         0.0000000000
      59400000.0000000000         0.0000000000
      60000000.0000000000         0.0000000000
      60600000.0000000000         0.0000000000
      61200000.0000000000         0.0000000000
      61800000.0000000000         0.0000000000
      62400000.0000000000         0.0000000000
      63000000.0000000000         0.0000000000
      63600000.0000000000         0.0000000000
      64200000.0000000000         0.0000000000
      64800000.0000000000         0.0000000000
      65400000.0000000000         0.0000000000



            AREAL INFILTRATION RATE
 READING ON UNIT   19 WITH FORMAT: (10F4.0)            

            1           2           3           4           5           6           7           8           9          10
 ........................................................................................................................
   1   1.0000E-10  2.0000E-10   0.000       0.000       0.000       0.000       0.000       0.000       0.000       0.000    
   2   2.0000E-10  1.0000E-10  2.0000E-10   0.000       0.000      8.0000E-10  8.0000E-10  5.0000E-10   0.000       0.000    
   3    0.000      5.0000E-10  1.0000E-10  1.0000E-10  8.0000E-10  8.0000E-10  5.0000E-10  5.0000E-10   0.000       0.000    
   4   8.0000E-10  5.0000E-10  1.0000E-10  1.0000E-10  1.0000E-10  1.0000E-10  1.0000E-10  1.0000E-10  2.0000E-10   0.000    
   5   8.0000E-10  5.0000E-10  1.0000E-10  1.0000E-10  1.0000E-10  1.0000E-10  1.0000E-10  1.0000E-10  1.0000E-10  1.0000E-10
   6   8.0000E-10  5.0000E-10  5.0000E-10  2.0000E-10  2.0000E-10  1.0000E-10  1.0000E-10  1.0000E-10  1.0000E-10  5.0000E-10
   7   8.0000E-10  5.0000E-10  5.0000E-10  2.0000E-10  2.0000E-10  1.0000E-10  1.0000E-10  2.0000E-10  2.0000E-10   0.000    
   8    0.000      5.0000E-10  5.0000E-10  2.0000E-10  2.0000E-10  1.0000E-10  1.0000E-10  2.0000E-10  5.0000E-10   0.000    
   9    0.000      5.0000E-10  5.0000E-10  2.0000E-10  2.0000E-10  1.0000E-10  1.0000E-10  2.0000E-10  5.0000E-10   0.000    
  10    0.000      5.0000E-10  5.0000E-10  2.0000E-10  2.0000E-10  1.0000E-10  1.0000E-10  2.0000E-10  5.0000E-10  8.0000E-10
  11    0.000      1.0000E-10  1.0000E-10  1.0000E-10  1.0000E-10  1.0000E-10  1.0000E-10  2.0000E-10  5.0000E-10   0.000    
  12   1.0000E-10  1.0000E-10  1.0000E-10  1.0000E-10  1.0000E-10  1.0000E-10  1.0000E-10  1.0000E-10  2.0000E-10   0.000    
  13   1.0000E-10  1.0000E-10  2.0000E-10  2.0000E-10  2.0000E-10  2.0000E-10  2.0000E-10  1.0000E-10  1.0000E-10   0.000    
  14    0.000      2.0000E-10  5.0000E-10  5.0000E-10  5.0000E-10  5.0000E-10  5.0000E-10  2.0000E-10  1.0000E-10   0.000    
  15    0.000       0.000      8.0000E-10  8.0000E-10  8.0000E-10  8.0000E-10   0.000       0.000       0.000       0.000    

                  ET RATE =  1.000000E-08

      ET EXTINCTION DEPTH =   5.00000    

 EXTINCTION WATER CONTENT =  5.000000E-02

EXTINCTION WATER CONTENT FOR CELL AT ROW     1, COLUMN     1 IS LESS THAN RESIDUAL WATER CONTENT-- SETTING EXTINCTION WATER CONTENT EQUAL TO RESIDUAL WATER CONTENT

EXTINCTION WATER CONTENT FOR CELL AT ROW     1, COLUMN     2 IS LESS THAN RESIDUAL WATER CONTENT-- SETTING EXTINCTION WATER CONTENT EQUAL TO RESIDUAL WATER CONTENT

EXTINCTION WATER CONTENT FOR CELL AT ROW     2, COLUMN     1 IS LESS THAN RESIDUAL WATER CONTENT-- SETTING EXTINCTION WATER CONTENT EQUAL TO RESIDUAL WATER CONTENT

EXTINCTION WATER CONTENT FOR CELL AT ROW     2, COLUMN     2 IS LESS THAN RESIDUAL WATER CONTENT-- SETTING EXTINCTION WATER CONTENT EQUAL TO RESIDUAL WATER CONTENT

EXTINCTION WATER CONTENT FOR CELL AT ROW     2, COLUMN     3 IS LESS THAN RESIDUAL WATER CONTENT-- SETTING EXTINCTION WATER CONTENT EQUAL TO RESIDUAL WATER CONTENT

EXTINCTION WATER CONTENT FOR CELL AT ROW     2, COLUMN     6 IS LESS THAN RESIDUAL WATER CONTENT-- SETTING EXTINCTION WATER CONTENT EQUAL TO RESIDUAL WATER CONTENT

EXTINCTION WATER CONTENT FOR CELL AT ROW     2, COLUMN     7 IS LESS THAN RESIDUAL WATER CONTENT-- SETTING EXTINCTION WATER CONTENT EQUAL TO RESIDUAL WATER CONTENT

EXTINCTION WATER CONTENT FOR CELL AT ROW     2, COLUMN     8 IS LESS THAN RESIDUAL WATER CONTENT-- SETTING EXTINCTION WATER CONTENT EQUAL TO RESIDUAL WATER CONTENT

EXTINCTION WATER CONTENT FOR CELL AT ROW     3, COLUMN     2 IS LESS THAN RESIDUAL WATER CONTENT-- SETTING EXTINCTION WATER CONTENT EQUAL TO RESIDUAL WATER CONTENT

EXTINCTION WATER CONTENT FOR CELL AT ROW     3, COLUMN     3 IS LESS THAN RESIDUAL WATER CONTENT-- SETTING EXTINCTION WATER CONTENT EQUAL TO RESIDUAL WATER CONTENT

EXTINCTION WATER CONTENT FOR CELL AT ROW     3, COLUMN     4 IS LESS THAN RESIDUAL WATER CONTENT-- SETTING EXTINCTION WATER CONTENT EQUAL TO RESIDUAL WATER CONTENT

EXTINCTION WATER CONTENT FOR CELL AT ROW     3, COLUMN     5 IS LESS THAN RESIDUAL WATER CONTENT-- SETTING EXTINCTION WATER CONTENT EQUAL TO RESIDUAL WATER CONTENT

EXTINCTION WATER CONTENT FOR CELL AT ROW     3, COLUMN     6 IS LESS THAN RESIDUAL WATER CONTENT-- SETTING EXTINCTION WATER CONTENT EQUAL TO RESIDUAL WATER CONTENT

EXTINCTION WATER CONTENT FOR CELL AT ROW     3, COLUMN     7 IS LESS THAN RESIDUAL WATER CONTENT-- SETTING EXTINCTION WATER CONTENT EQUAL TO RESIDUAL WATER CONTENT

EXTINCTION WATER CONTENT FOR CELL AT ROW     3, COLUMN     8 IS LESS THAN RESIDUAL WATER CONTENT-- SETTING EXTINCTION WATER CONTENT EQUAL TO RESIDUAL WATER CONTENT

EXTINCTION WATER CONTENT FOR CELL AT ROW     4, COLUMN     1 IS LESS THAN RESIDUAL WATER CONTENT-- SETTING EXTINCTION WATER CONTENT EQUAL TO RESIDUAL WATER CONTENT

EXTINCTION WATER CONTENT FOR CELL AT ROW     4, COLUMN     2 IS LESS THAN RESIDUAL WATER CONTENT-- SETTING EXTINCTION WATER CONTENT EQUAL TO RESIDUAL WATER CONTENT

EXTINCTION WATER CONTENT FOR CELL AT ROW     4, COLUMN     3 IS LESS THAN RESIDUAL WATER CONTENT-- SETTING EXTINCTION WATER CONTENT EQUAL TO RESIDUAL WATER CONTENT

EXTINCTION WATER CONTENT FOR CELL AT ROW     4, COLUMN     4 IS LESS THAN RESIDUAL WATER CONTENT-- SETTING EXTINCTION WATER CONTENT EQUAL TO RESIDUAL WATER CONTENT

EXTINCTION WATER CONTENT FOR CELL AT ROW     4, COLUMN     5 IS LESS THAN RESIDUAL WATER CONTENT-- SETTING EXTINCTION WATER CONTENT EQUAL TO RESIDUAL WATER CONTENT

EXTINCTION WATER CONTENT FOR CELL AT ROW     4, COLUMN     6 IS LESS THAN RESIDUAL WATER CONTENT-- SETTING EXTINCTION WATER CONTENT EQUAL TO RESIDUAL WATER CONTENT

EXTINCTION WATER CONTENT FOR CELL AT ROW     4, COLUMN     7 IS LESS THAN RESIDUAL WATER CONTENT-- SETTING EXTINCTION WATER CONTENT EQUAL TO RESIDUAL WATER CONTENT

EXTINCTION WATER CONTENT FOR CELL AT ROW     4, COLUMN     8 IS LESS THAN RESIDUAL WATER CONTENT-- SETTING EXTINCTION WATER CONTENT EQUAL TO RESIDUAL WATER CONTENT

EXTINCTION WATER CONTENT FOR CELL AT ROW     4, COLUMN     9 IS LESS THAN RESIDUAL WATER CONTENT-- SETTING EXTINCTION WATER CONTENT EQUAL TO RESIDUAL WATER CONTENT

EXTINCTION WATER CONTENT FOR CELL AT ROW     5, COLUMN     1 IS LESS THAN RESIDUAL WATER CONTENT-- SETTING EXTINCTION WATER CONTENT EQUAL TO RESIDUAL WATER CONTENT

EXTINCTION WATER CONTENT FOR CELL AT ROW     5, COLUMN     2 IS LESS THAN RESIDUAL WATER CONTENT-- SETTING EXTINCTION WATER CONTENT EQUAL TO RESIDUAL WATER CONTENT

EXTINCTION WATER CONTENT FOR CELL AT ROW     5, COLUMN     3 IS LESS THAN RESIDUAL WATER CONTENT-- SETTING EXTINCTION WATER CONTENT EQUAL TO RESIDUAL WATER CONTENT

EXTINCTION WATER CONTENT FOR CELL AT ROW     5, COLUMN     4 IS LESS THAN RESIDUAL WATER CONTENT-- SETTING EXTINCTION WATER CONTENT EQUAL TO RESIDUAL WATER CONTENT

EXTINCTION WATER CONTENT FOR CELL AT ROW     5, COLUMN     5 IS LESS THAN RESIDUAL WATER CONTENT-- SETTING EXTINCTION WATER CONTENT EQUAL TO RESIDUAL WATER CONTENT

EXTINCTION WATER CONTENT FOR CELL AT ROW     5, COLUMN     6 IS LESS THAN RESIDUAL WATER CONTENT-- SETTING EXTINCTION WATER CONTENT EQUAL TO RESIDUAL WATER CONTENT

EXTINCTION WATER CONTENT FOR CELL AT ROW     5, COLUMN     7 IS LESS THAN RESIDUAL WATER CONTENT-- SETTING EXTINCTION WATER CONTENT EQUAL TO RESIDUAL WATER CONTENT

EXTINCTION WATER CONTENT FOR CELL AT ROW     5, COLUMN     8 IS LESS THAN RESIDUAL WATER CONTENT-- SETTING EXTINCTION WATER CONTENT EQUAL TO RESIDUAL WATER CONTENT

EXTINCTION WATER CONTENT FOR CELL AT ROW     5, COLUMN     9 IS LESS THAN RESIDUAL WATER CONTENT-- SETTING EXTINCTION WATER CONTENT EQUAL TO RESIDUAL WATER CONTENT

EXTINCTION WATER CONTENT FOR CELL AT ROW     5, COLUMN    10 IS LESS THAN RESIDUAL WATER CONTENT-- SETTING EXTINCTION WATER CONTENT EQUAL TO RESIDUAL WATER CONTENT

EXTINCTION WATER CONTENT FOR CELL AT ROW     6, COLUMN     1 IS LESS THAN RESIDUAL WATER CONTENT-- SETTING EXTINCTION WATER CONTENT EQUAL TO RESIDUAL WATER CONTENT

EXTINCTION WATER CONTENT FOR CELL AT ROW     6, COLUMN     2 IS LESS THAN RESIDUAL WATER CONTENT-- SETTING EXTINCTION WATER CONTENT EQUAL TO RESIDUAL WATER CONTENT

EXTINCTION WATER CONTENT FOR CELL AT ROW     6, COLUMN     3 IS LESS THAN RESIDUAL WATER CONTENT-- SETTING EXTINCTION WATER CONTENT EQUAL TO RESIDUAL WATER CONTENT

EXTINCTION WATER CONTENT FOR CELL AT ROW     6, COLUMN     4 IS LESS THAN RESIDUAL WATER CONTENT-- SETTING EXTINCTION WATER CONTENT EQUAL TO RESIDUAL WATER CONTENT

EXTINCTION WATER CONTENT FOR CELL AT ROW     6, COLUMN     5 IS LESS THAN RESIDUAL WATER CONTENT-- SETTING EXTINCTION WATER CONTENT EQUAL TO RESIDUAL WATER CONTENT

EXTINCTION WATER CONTENT FOR CELL AT ROW     6, COLUMN     6 IS LESS THAN RESIDUAL WATER CONTENT-- SETTING EXTINCTION WATER CONTENT EQUAL TO RESIDUAL WATER CONTENT

EXTINCTION WATER CONTENT FOR CELL AT ROW     6, COLUMN     7 IS LESS THAN RESIDUAL WATER CONTENT-- SETTING EXTINCTION WATER CONTENT EQUAL TO RESIDUAL WATER CONTENT

EXTINCTION WATER CONTENT FOR CELL AT ROW     6, COLUMN     8 IS LESS THAN RESIDUAL WATER CONTENT-- SETTING EXTINCTION WATER CONTENT EQUAL TO RESIDUAL WATER CONTENT

EXTINCTION WATER CONTENT FOR CELL AT ROW     6, COLUMN     9 IS LESS THAN RESIDUAL WATER CONTENT-- SETTING EXTINCTION WATER CONTENT EQUAL TO RESIDUAL WATER CONTENT

EXTINCTION WATER CONTENT FOR CELL AT ROW     6, COLUMN    10 IS LESS THAN RESIDUAL WATER CONTENT-- SETTING EXTINCTION WATER CONTENT EQUAL TO RESIDUAL WATER CONTENT

EXTINCTION WATER CONTENT FOR CELL AT ROW     7, COLUMN     1 IS LESS THAN RESIDUAL WATER CONTENT-- SETTING EXTINCTION WATER CONTENT EQUAL TO RESIDUAL WATER CONTENT

EXTINCTION WATER CONTENT FOR CELL AT ROW     7, COLUMN     2 IS LESS THAN RESIDUAL WATER CONTENT-- SETTING EXTINCTION WATER CONTENT EQUAL TO RESIDUAL WATER CONTENT

EXTINCTION WATER CONTENT FOR CELL AT ROW     7, COLUMN     3 IS LESS THAN RESIDUAL WATER CONTENT-- SETTING EXTINCTION WATER CONTENT EQUAL TO RESIDUAL WATER CONTENT

EXTINCTION WATER CONTENT FOR CELL AT ROW     7, COLUMN     4 IS LESS THAN RESIDUAL WATER CONTENT-- SETTING EXTINCTION WATER CONTENT EQUAL TO RESIDUAL WATER CONTENT

EXTINCTION WATER CONTENT FOR CELL AT ROW     7, COLUMN     5 IS LESS THAN RESIDUAL WATER CONTENT-- SETTING EXTINCTION WATER CONTENT EQUAL TO RESIDUAL WATER CONTENT

EXTINCTION WATER CONTENT FOR CELL AT ROW     7, COLUMN     6 IS LESS THAN RESIDUAL WATER CONTENT-- SETTING EXTINCTION WATER CONTENT EQUAL TO RESIDUAL WATER CONTENT

EXTINCTION WATER CONTENT FOR CELL AT ROW     7, COLUMN     7 IS LESS THAN RESIDUAL WATER CONTENT-- SETTING EXTINCTION WATER CONTENT EQUAL TO RESIDUAL WATER CONTENT

EXTINCTION WATER CONTENT FOR CELL AT ROW     7, COLUMN     8 IS LESS THAN RESIDUAL WATER CONTENT-- SETTING EXTINCTION WATER CONTENT EQUAL TO RESIDUAL WATER CONTENT

EXTINCTION WATER CONTENT FOR CELL AT ROW     7, COLUMN     9 IS LESS THAN RESIDUAL WATER CONTENT-- SETTING EXTINCTION WATER CONTENT EQUAL TO RESIDUAL WATER CONTENT

EXTINCTION WATER CONTENT FOR CELL AT ROW     8, COLUMN     2 IS LESS THAN RESIDUAL WATER CONTENT-- SETTING EXTINCTION WATER CONTENT EQUAL TO RESIDUAL WATER CONTENT

EXTINCTION WATER CONTENT FOR CELL AT ROW     8, COLUMN     3 IS LESS THAN RESIDUAL WATER CONTENT-- SETTING EXTINCTION WATER CONTENT EQUAL TO RESIDUAL WATER CONTENT

EXTINCTION WATER CONTENT FOR CELL AT ROW     8, COLUMN     4 IS LESS THAN RESIDUAL WATER CONTENT-- SETTING EXTINCTION WATER CONTENT EQUAL TO RESIDUAL WATER CONTENT

EXTINCTION WATER CONTENT FOR CELL AT ROW     8, COLUMN     5 IS LESS THAN RESIDUAL WATER CONTENT-- SETTING EXTINCTION WATER CONTENT EQUAL TO RESIDUAL WATER CONTENT

EXTINCTION WATER CONTENT FOR CELL AT ROW     8, COLUMN     6 IS LESS THAN RESIDUAL WATER CONTENT-- SETTING EXTINCTION WATER CONTENT EQUAL TO RESIDUAL WATER CONTENT

EXTINCTION WATER CONTENT FOR CELL AT ROW     8, COLUMN     7 IS LESS THAN RESIDUAL WATER CONTENT-- SETTING EXTINCTION WATER CONTENT EQUAL TO RESIDUAL WATER CONTENT

EXTINCTION WATER CONTENT FOR CELL AT ROW     8, COLUMN     8 IS LESS THAN RESIDUAL WATER CONTENT-- SETTING EXTINCTION WATER CONTENT EQUAL TO RESIDUAL WATER CONTENT

EXTINCTION WATER CONTENT FOR CELL AT ROW     8, COLUMN     9 IS LESS THAN RESIDUAL WATER CONTENT-- SETTING EXTINCTION WATER CONTENT EQUAL TO RESIDUAL WATER CONTENT

EXTINCTION WATER CONTENT FOR CELL AT ROW     9, COLUMN     2 IS LESS THAN RESIDUAL WATER CONTENT-- SETTING EXTINCTION WATER CONTENT EQUAL TO RESIDUAL WATER CONTENT

EXTINCTION WATER CONTENT FOR CELL AT ROW     9, COLUMN     3 IS LESS THAN RESIDUAL WATER CONTENT-- SETTING EXTINCTION WATER CONTENT EQUAL TO RESIDUAL WATER CONTENT

EXTINCTION WATER CONTENT FOR CELL AT ROW     9, COLUMN     4 IS LESS THAN RESIDUAL WATER CONTENT-- SETTING EXTINCTION WATER CONTENT EQUAL TO RESIDUAL WATER CONTENT

EXTINCTION WATER CONTENT FOR CELL AT ROW     9, COLUMN     5 IS LESS THAN RESIDUAL WATER CONTENT-- SETTING EXTINCTION WATER CONTENT EQUAL TO RESIDUAL WATER CONTENT

EXTINCTION WATER CONTENT FOR CELL AT ROW     9, COLUMN     6 IS LESS THAN RESIDUAL WATER CONTENT-- SETTING EXTINCTION WATER CONTENT EQUAL TO RESIDUAL WATER CONTENT

EXTINCTION WATER CONTENT FOR CELL AT ROW     9, COLUMN     7 IS LESS THAN RESIDUAL WATER CONTENT-- SETTING EXTINCTION WATER CONTENT EQUAL TO RESIDUAL WATER CONTENT

EXTINCTION WATER CONTENT FOR CELL AT ROW     9, COLUMN     8 IS LESS THAN RESIDUAL WATER CONTENT-- SETTING EXTINCTION WATER CONTENT EQUAL TO RESIDUAL WATER CONTENT

EXTINCTION WATER CONTENT FOR CELL AT ROW     9, COLUMN     9 IS LESS THAN RESIDUAL WATER CONTENT-- SETTING EXTINCTION WATER CONTENT EQUAL TO RESIDUAL WATER CONTENT

EXTINCTION WATER CONTENT FOR CELL AT ROW    10, COLUMN     2 IS LESS THAN RESIDUAL WATER CONTENT-- SETTING EXTINCTION WATER CONTENT EQUAL TO RESIDUAL WATER CONTENT

EXTINCTION WATER CONTENT FOR CELL AT ROW    10, COLUMN     3 IS LESS THAN RESIDUAL WATER CONTENT-- SETTING EXTINCTION WATER CONTENT EQUAL TO RESIDUAL WATER CONTENT

EXTINCTION WATER CONTENT FOR CELL AT ROW    10, COLUMN     4 IS LESS THAN RESIDUAL WATER CONTENT-- SETTING EXTINCTION WATER CONTENT EQUAL TO RESIDUAL WATER CONTENT

EXTINCTION WATER CONTENT FOR CELL AT ROW    10, COLUMN     5 IS LESS THAN RESIDUAL WATER CONTENT-- SETTING EXTINCTION WATER CONTENT EQUAL TO RESIDUAL WATER CONTENT

EXTINCTION WATER CONTENT FOR CELL AT ROW    10, COLUMN     6 IS LESS THAN RESIDUAL WATER CONTENT-- SETTING EXTINCTION WATER CONTENT EQUAL TO RESIDUAL WATER CONTENT

EXTINCTION WATER CONTENT FOR CELL AT ROW    10, COLUMN     7 IS LESS THAN RESIDUAL WATER CONTENT-- SETTING EXTINCTION WATER CONTENT EQUAL TO RESIDUAL WATER CONTENT

EXTINCTION WATER CONTENT FOR CELL AT ROW    10, COLUMN     8 IS LESS THAN RESIDUAL WATER CONTENT-- SETTING EXTINCTION WATER CONTENT EQUAL TO RESIDUAL WATER CONTENT

EXTINCTION WATER CONTENT FOR CELL AT ROW    10, COLUMN     9 IS LESS THAN RESIDUAL WATER CONTENT-- SETTING EXTINCTION WATER CONTENT EQUAL TO RESIDUAL WATER CONTENT

EXTINCTION WATER CONTENT FOR CELL AT ROW    10, COLUMN    10 IS LESS THAN RESIDUAL WATER CONTENT-- SETTING EXTINCTION WATER CONTENT EQUAL TO RESIDUAL WATER CONTENT

EXTINCTION WATER CONTENT FOR CELL AT ROW    11, COLUMN     2 IS LESS THAN RESIDUAL WATER CONTENT-- SETTING EXTINCTION WATER CONTENT EQUAL TO RESIDUAL WATER CONTENT

EXTINCTION WATER CONTENT FOR CELL AT ROW    11, COLUMN     3 IS LESS THAN RESIDUAL WATER CONTENT-- SETTING EXTINCTION WATER CONTENT EQUAL TO RESIDUAL WATER CONTENT

EXTINCTION WATER CONTENT FOR CELL AT ROW    11, COLUMN     4 IS LESS THAN RESIDUAL WATER CONTENT-- SETTING EXTINCTION WATER CONTENT EQUAL TO RESIDUAL WATER CONTENT

EXTINCTION WATER CONTENT FOR CELL AT ROW    11, COLUMN     5 IS LESS THAN RESIDUAL WATER CONTENT-- SETTING EXTINCTION WATER CONTENT EQUAL TO RESIDUAL WATER CONTENT

EXTINCTION WATER CONTENT FOR CELL AT ROW    11, COLUMN     6 IS LESS THAN RESIDUAL WATER CONTENT-- SETTING EXTINCTION WATER CONTENT EQUAL TO RESIDUAL WATER CONTENT

EXTINCTION WATER CONTENT FOR CELL AT ROW    11, COLUMN     7 IS LESS THAN RESIDUAL WATER CONTENT-- SETTING EXTINCTION WATER CONTENT EQUAL TO RESIDUAL WATER CONTENT

EXTINCTION WATER CONTENT FOR CELL AT ROW    11, COLUMN     8 IS LESS THAN RESIDUAL WATER CONTENT-- SETTING EXTINCTION WATER CONTENT EQUAL TO RESIDUAL WATER CONTENT

EXTINCTION WATER CONTENT FOR CELL AT ROW    11, COLUMN     9 IS LESS THAN RESIDUAL WATER CONTENT-- SETTING EXTINCTION WATER CONTENT EQUAL TO RESIDUAL WATER CONTENT

EXTINCTION WATER CONTENT FOR CELL AT ROW    12, COLUMN     1 IS LESS THAN RESIDUAL WATER CONTENT-- SETTING EXTINCTION WATER CONTENT EQUAL TO RESIDUAL WATER CONTENT

EXTINCTION WATER CONTENT FOR CELL AT ROW    12, COLUMN     2 IS LESS THAN RESIDUAL WATER CONTENT-- SETTING EXTINCTION WATER CONTENT EQUAL TO RESIDUAL WATER CONTENT

EXTINCTION WATER CONTENT FOR CELL AT ROW    12, COLUMN     3 IS LESS THAN RESIDUAL WATER CONTENT-- SETTING EXTINCTION WATER CONTENT EQUAL TO RESIDUAL WATER CONTENT

EXTINCTION WATER CONTENT FOR CELL AT ROW    12, COLUMN     4 IS LESS THAN RESIDUAL WATER CONTENT-- SETTING EXTINCTION WATER CONTENT EQUAL TO RESIDUAL WATER CONTENT

EXTINCTION WATER CONTENT FOR CELL AT ROW    12, COLUMN     5 IS LESS THAN RESIDUAL WATER CONTENT-- SETTING EXTINCTION WATER CONTENT EQUAL TO RESIDUAL WATER CONTENT

EXTINCTION WATER CONTENT FOR CELL AT ROW    12, COLUMN     6 IS LESS THAN RESIDUAL WATER CONTENT-- SETTING EXTINCTION WATER CONTENT EQUAL TO RESIDUAL WATER CONTENT

EXTINCTION WATER CONTENT FOR CELL AT ROW    12, COLUMN     7 IS LESS THAN RESIDUAL WATER CONTENT-- SETTING EXTINCTION WATER CONTENT EQUAL TO RESIDUAL WATER CONTENT

EXTINCTION WATER CONTENT FOR CELL AT ROW    12, COLUMN     8 IS LESS THAN RESIDUAL WATER CONTENT-- SETTING EXTINCTION WATER CONTENT EQUAL TO RESIDUAL WATER CONTENT

EXTINCTION WATER CONTENT FOR CELL AT ROW    12, COLUMN     9 IS LESS THAN RESIDUAL WATER CONTENT-- SETTING EXTINCTION WATER CONTENT EQUAL TO RESIDUAL WATER CONTENT

EXTINCTION WATER CONTENT FOR CELL AT ROW    13, COLUMN     1 IS LESS THAN RESIDUAL WATER CONTENT-- SETTING EXTINCTION WATER CONTENT EQUAL TO RESIDUAL WATER CONTENT

EXTINCTION WATER CONTENT FOR CELL AT ROW    13, COLUMN     2 IS LESS THAN RESIDUAL WATER CONTENT-- SETTING EXTINCTION WATER CONTENT EQUAL TO RESIDUAL WATER CONTENT

EXTINCTION WATER CONTENT FOR CELL AT ROW    13, COLUMN     3 IS LESS THAN RESIDUAL WATER CONTENT-- SETTING EXTINCTION WATER CONTENT EQUAL TO RESIDUAL WATER CONTENT

EXTINCTION WATER CONTENT FOR CELL AT ROW    13, COLUMN     4 IS LESS THAN RESIDUAL WATER CONTENT-- SETTING EXTINCTION WATER CONTENT EQUAL TO RESIDUAL WATER CONTENT

EXTINCTION WATER CONTENT FOR CELL AT ROW    13, COLUMN     5 IS LESS THAN RESIDUAL WATER CONTENT-- SETTING EXTINCTION WATER CONTENT EQUAL TO RESIDUAL WATER CONTENT

EXTINCTION WATER CONTENT FOR CELL AT ROW    13, COLUMN     6 IS LESS THAN RESIDUAL WATER CONTENT-- SETTING EXTINCTION WATER CONTENT EQUAL TO RESIDUAL WATER CONTENT

EXTINCTION WATER CONTENT FOR CELL AT ROW    13, COLUMN     7 IS LESS THAN RESIDUAL WATER CONTENT-- SETTING EXTINCTION WATER CONTENT EQUAL TO RESIDUAL WATER CONTENT

EXTINCTION WATER CONTENT FOR CELL AT ROW    13, COLUMN     8 IS LESS THAN RESIDUAL WATER CONTENT-- SETTING EXTINCTION WATER CONTENT EQUAL TO RESIDUAL WATER CONTENT

EXTINCTION WATER CONTENT FOR CELL AT ROW    13, COLUMN     9 IS LESS THAN RESIDUAL WATER CONTENT-- SETTING EXTINCTION WATER CONTENT EQUAL TO RESIDUAL WATER CONTENT

EXTINCTION WATER CONTENT FOR CELL AT ROW    14, COLUMN     2 IS LESS THAN RESIDUAL WATER CONTENT-- SETTING EXTINCTION WATER CONTENT EQUAL TO RESIDUAL WATER CONTENT

EXTINCTION WATER CONTENT FOR CELL AT ROW    14, COLUMN     3 IS LESS THAN RESIDUAL WATER CONTENT-- SETTING EXTINCTION WATER CONTENT EQUAL TO RESIDUAL WATER CONTENT

EXTINCTION WATER CONTENT FOR CELL AT ROW    14, COLUMN     4 IS LESS THAN RESIDUAL WATER CONTENT-- SETTING EXTINCTION WATER CONTENT EQUAL TO RESIDUAL WATER CONTENT

EXTINCTION WATER CONTENT FOR CELL AT ROW    14, COLUMN     5 IS LESS THAN RESIDUAL WATER CONTENT-- SETTING EXTINCTION WATER CONTENT EQUAL TO RESIDUAL WATER CONTENT

EXTINCTION WATER CONTENT FOR CELL AT ROW    14, COLUMN     6 IS LESS THAN RESIDUAL WATER CONTENT-- SETTING EXTINCTION WATER CONTENT EQUAL TO RESIDUAL WATER CONTENT

EXTINCTION WATER CONTENT FOR CELL AT ROW    14, COLUMN     7 IS LESS THAN RESIDUAL WATER CONTENT-- SETTING EXTINCTION WATER CONTENT EQUAL TO RESIDUAL WATER CONTENT

EXTINCTION WATER CONTENT FOR CELL AT ROW    14, COLUMN     8 IS LESS THAN RESIDUAL WATER CONTENT-- SETTING EXTINCTION WATER CONTENT EQUAL TO RESIDUAL WATER CONTENT

EXTINCTION WATER CONTENT FOR CELL AT ROW    14, COLUMN     9 IS LESS THAN RESIDUAL WATER CONTENT-- SETTING EXTINCTION WATER CONTENT EQUAL TO RESIDUAL WATER CONTENT

EXTINCTION WATER CONTENT FOR CELL AT ROW    15, COLUMN     3 IS LESS THAN RESIDUAL WATER CONTENT-- SETTING EXTINCTION WATER CONTENT EQUAL TO RESIDUAL WATER CONTENT

EXTINCTION WATER CONTENT FOR CELL AT ROW    15, COLUMN     4 IS LESS THAN RESIDUAL WATER CONTENT-- SETTING EXTINCTION WATER CONTENT EQUAL TO RESIDUAL WATER CONTENT

EXTINCTION WATER CONTENT FOR CELL AT ROW    15, COLUMN     5 IS LESS THAN RESIDUAL WATER CONTENT-- SETTING EXTINCTION WATER CONTENT EQUAL TO RESIDUAL WATER CONTENT

EXTINCTION WATER CONTENT FOR CELL AT ROW    15, COLUMN     6 IS LESS THAN RESIDUAL WATER CONTENT-- SETTING EXTINCTION WATER CONTENT EQUAL TO RESIDUAL WATER CONTENT
 
 SOLVING FOR HEAD 
                                                   Max.-Head-Change                         Max.-Flux-Residual
  Residual-Control   Outer-Iter.   Inner-Iter.     Column Row Layer    Maximum-Head-Change  Column Row Layer    Maximum-Flux-Residual          L2-NORM 
          0                 1           4             1    1     1      -0.5215033375E+02       3    3    1        -0.3473569614E+01      0.9635409413E+01
          0                 2           4             7    3     1      -0.3074249260E+02       1   13    1        -0.2458982963E+02      0.2595370052E+02
          0                 3           5             4   13     1      -0.3958135951E+01       4   13    1        -0.3669196396E+01      0.3747381929E+01
          0                 4           5             3   13     1      -0.1502002753E+01       3   13    1        -0.1250437021E+01      0.1382576736E+01
          0                 5           4             3   13     1       0.1246693805E+00       3   13    1         0.1000280379E+00      0.1207648746E+00
          0                 6           4             3   13     1      -0.9759685854E-02       3   13    1        -0.7478877239E-02      0.1035564025E-01
          0                 7           3             3   12     1       0.7336134211E-03       4   13    1        -0.5582661545E-03      0.8116356007E-03
          0                 8           1             3   12     1      -0.4391031827E-04       4   13    1         0.4222703092E-04      0.5739267093E-04
          0                 9           1             1    7     1      -0.7599612689E-05       4   13    1        -0.2617723453E-05      0.3291290449E-05

    ------------------------------------------------
       NWT REQUIRED            9 OUTER ITERATIONS 
       AND A TOTAL OF         31 INNER ITERATIONS.
    ------------------------------------------------

 OUTPUT CONTROL FOR STRESS PERIOD    1   TIME STEP    1
    PRINT BUDGET
    SAVE BUDGET
 UBUDSV SAVING "   CONSTANT HEAD" ON UNIT102 AT TIME STEP     1, STRESS PERIOD    1
 UBUDSV SAVING "FLOW RIGHT FACE " ON UNIT102 AT TIME STEP     1, STRESS PERIOD    1
 UBUDSV SAVING "FLOW FRONT FACE " ON UNIT102 AT TIME STEP     1, STRESS PERIOD    1

  HEAD DEP BOUNDS   PERIOD    1   STEP     1
 BOUNDARY      1   LAYER   1   ROW    13   COL     1   RATE   -0.279117    
 BOUNDARY      2   LAYER   1   ROW    14   COL     9   RATE     1.06963    



 STREAM LISTING     PERIOD      1   STEP        1

 LAYER ROW COL. STREAM  RCH.  FLOW INTO     FLOW TO   FLOW OUT OF   OVRLND.     DIRECT     STREAM       STREAM     STREAM     STREAM   STREAMBED  STREAMBED
                SEG.NO.  NO.  STRM. RCH.    AQUIFER    STRM. RCH.    RUNOFF     PRECIP       ET          HEAD       DEPTH      WIDTH   CONDCTNC.   GRADIENT

   1    1    1     1     1    0.0000E+00  0.0000E+00   0.0000E+00  0.000E+00  0.000E+00  0.000E+00  1.09305E+03  0.000E+00  1.400E+01  6.300E-02  1.000E+00
   1    2    2     1     2    0.0000E+00  0.0000E+00   0.0000E+00  0.000E+00  0.000E+00  0.000E+00  1.08806E+03  0.000E+00  1.400E+01  9.800E-02  1.000E+00
   1    3    3     1     3    0.0000E+00  0.0000E+00   0.0000E+00  0.000E+00  0.000E+00  0.000E+00  1.08242E+03  0.000E+00  1.400E+01  8.400E-02  1.000E+00
   1    3    4     1     4    0.0000E+00  0.0000E+00   0.0000E+00  0.000E+00  0.000E+00  0.000E+00  1.07741E+03  0.000E+00  1.400E+01  7.770E-02  1.000E+00
   1    4    5     2     1    0.0000E+00  0.0000E+00   0.0000E+00  0.000E+00  0.000E+00  0.000E+00  1.07193E+03  0.000E+00  1.200E+01  7.800E-02  1.000E+00
   1    5    6     2     2    0.0000E+00  0.0000E+00   0.0000E+00  0.000E+00  0.000E+00  0.000E+00  1.06651E+03  0.000E+00  1.200E+01  6.000E-02  1.000E+00
   1    6    6     2     3    0.0000E+00  0.0000E+00   0.0000E+00  0.000E+00  0.000E+00  0.000E+00  1.06179E+03  0.000E+00  1.200E+01  6.000E-02  1.000E+00
   1    7    6     2     4    0.0000E+00  0.0000E+00   0.0000E+00  0.000E+00  0.000E+00  0.000E+00  1.05708E+03  0.000E+00  1.200E+01  6.000E-02  1.000E+00
   1    8    6     2     5    0.0000E+00  0.0000E+00   0.0000E+00  0.000E+00  0.000E+00  0.000E+00  1.05236E+03  0.000E+00  1.200E+01  6.000E-02  1.000E+00
   1    3    5     3     1    0.0000E+00  0.0000E+00   0.0000E+00  0.000E+00  0.000E+00  0.000E+00  1.07364E+03  0.000E+00  9.636E+00  7.227E-02  1.000E+00
   1    3    6     3     2    0.0000E+00  0.0000E+00   0.0000E+00  0.000E+00  0.000E+00  0.000E+00  1.07091E+03  0.000E+00  8.909E+00  6.682E-02  1.000E+00
   1    3    7     3     3    0.0000E+00  0.0000E+00   0.0000E+00  0.000E+00  0.000E+00  0.000E+00  1.06832E+03  0.000E+00  8.218E+00  5.547E-02  1.000E+00
   1    4    8     3     4    0.0000E+00  0.0000E+00   0.0000E+00  0.000E+00  0.000E+00  0.000E+00  1.06545E+03  0.000E+00  7.455E+00  6.709E-02  1.000E+00
   1    5    8     3     5    0.0000E+00  0.0000E+00   0.0000E+00  0.000E+00  0.000E+00  0.000E+00  1.06245E+03  0.000E+00  6.655E+00  4.991E-02  1.000E+00
   1    6    8     3     6    0.0000E+00  0.0000E+00   0.0000E+00  0.000E+00  0.000E+00  0.000E+00  1.06055E+03  0.000E+00  6.145E+00  1.844E-02  1.000E+00
   1    5   10     4     1    1.0000E+01  9.0919E-02   9.9091E+00  0.000E+00  0.000E+00  0.000E+00  1.07836E+03  6.368E-01  1.000E+01  2.500E-02  1.212E+00
   1    5    9     4     2    9.9091E+00  1.8158E-01   9.7275E+00  0.000E+00  0.000E+00  0.000E+00  1.07154E+03  6.315E-01  1.000E+01  5.000E-02  1.211E+00
   1    6    8     4     3    9.7275E+00  1.2689E-01   9.6006E+00  0.000E+00  0.000E+00  0.000E+00  1.06381E+03  6.256E-01  1.000E+01  3.500E-02  1.209E+00
   1    6    8     5     1    9.6006E+00  2.1464E-09   9.6006E+00  0.000E+00  0.000E+00  0.000E+00  1.05866E+03  6.595E-01  1.466E+01  5.865E-10  1.220E+00
   1    7    7     5     2    9.6006E+00  2.6780E-09   9.6006E+00  0.000E+00  0.000E+00  0.000E+00  1.05416E+03  6.589E-01  1.464E+01  7.319E-10  1.220E+00
   1    8    7     5     3    9.6006E+00  1.8799E-09   9.6006E+00  0.000E+00  0.000E+00  0.000E+00  1.04991E+03  6.598E-01  1.468E+01  5.137E-10  1.220E+00
   1    8    6     5     4    9.6006E+00  1.3453E-09   9.6006E+00  0.000E+00  0.000E+00  0.000E+00  1.04691E+03  6.605E-01  1.470E+01  3.675E-10  1.220E+00
   1    9    6     6     1    9.6006E+00  2.2097E-01   9.3796E+00  0.000E+00  0.000E+00  0.000E+00  1.04341E+03  6.829E-01  1.200E+01  6.000E-02  1.228E+00
   1   10    7     6     2    9.3796E+00  2.2040E-01   9.1592E+00  0.000E+00  0.000E+00  0.000E+00  1.03886E+03  6.733E-01  1.200E+01  6.000E-02  1.224E+00
   1   11    7     6     3    9.1592E+00  2.1982E-01   8.9394E+00  0.000E+00  0.000E+00  0.000E+00  1.03430E+03  6.637E-01  1.200E+01  6.000E-02  1.221E+00
   1   12    7     6     4    8.9394E+00  2.1924E-01   8.7202E+00  0.000E+00  0.000E+00  0.000E+00  1.02974E+03  6.539E-01  1.200E+01  6.000E-02  1.218E+00
   1   13    7     6     5    8.7202E+00  8.7531E-02   8.6327E+00  0.000E+00  0.000E+00  0.000E+00  1.02656E+03  6.471E-01  1.200E+01  2.400E-02  1.216E+00
   1   14    9     7     1    1.5000E+02  2.9539E-08   1.5000E+02  0.000E+00  0.000E+00  0.000E+00  1.03986E+03  2.283E+00  5.528E+01  5.591E-09  1.761E+00
   1   13    8     7     2    1.5000E+02  3.2486E-14   1.5000E+02  0.000E+00  0.000E+00  0.000E+00  1.03478E+03  2.283E+00  5.527E+01  6.150E-15  1.761E+00
   1   13    7     7     3    1.5000E+02  2.9539E-08   1.5000E+02  0.000E+00  0.000E+00  0.000E+00  1.02970E+03  2.283E+00  5.528E+01  5.591E-09  1.761E+00
   1   13    6     8     1    1.5863E+02  2.4868E-13   1.5863E+02  0.000E+00  0.000E+00  0.000E+00  1.02474E+03  2.868E+00  4.159E+01  4.238E-14  1.956E+00
   1   13    5     8     2    1.5863E+02  2.4868E-14   1.5863E+02  0.000E+00  0.000E+00  0.000E+00  1.01849E+03  2.868E+00  4.159E+01  4.238E-15  1.956E+00
   1   13    4     8     3    1.5863E+02  2.3391E-14   1.5863E+02  0.000E+00  0.000E+00  0.000E+00  1.01224E+03  2.869E+00  4.159E+01  4.239E-15  1.840E+00
   1   13    3     8     4    1.5863E+02  7.1462E-10   1.5863E+02  0.000E+00  0.000E+00  0.000E+00  1.00600E+03  2.874E+00  4.168E+01  4.247E-10  5.609E-01
   1   13    2     8     5    1.5863E+02 -7.6233E-01   1.5939E+02  0.000E+00  0.000E+00  0.000E+00  9.99754E+02  2.879E+00  4.175E+01  4.254E+00 -5.973E-02
   1   13    1     8     6    1.5939E+02 -1.4930E+00   1.6089E+02  0.000E+00  0.000E+00  0.000E+00  9.94762E+02  2.887E+00  4.186E+01  2.559E+00 -1.945E-01
   1    6    8     9     1    0.0000E+00  0.0000E+00   0.0000E+00  0.000E+00  0.000E+00  0.000E+00  1.07850E+03  0.000E+00  4.000E+00  0.000E+00  1.000E+00



 UBDSV3 SAVING "     NETRECHARGE" ON UNIT 100 AT TIME STEP     1, STRESS PERIOD   1
 UBDSV3 SAVING "    NETDISCHARGE" ON UNIT 101 AT TIME STEP     1, STRESS PERIOD   1
 UBDSV3 SAVING "           GW ET" ON UNIT  61 AT TIME STEP     1, STRESS PERIOD   1
 UBDSV3 SAVING "    UZF RECHARGE" ON UNIT  61 AT TIME STEP     1, STRESS PERIOD   1
 UBDSV3 SAVING " SURFACE LEAKAGE" ON UNIT  61 AT TIME STEP     1, STRESS PERIOD   1
 UBDSV3 SAVING "       HORT+DUNN" ON UNIT  61 AT TIME STEP     1, STRESS PERIOD   1
 UBDSV3 SAVING "  STORAGE CHANGE" ON UNIT  61 AT TIME STEP     1, STRESS PERIOD   1


UNSATURATED ZONE PACKAGE VOLUMETRIC BUDGET FOR  TIME STEP     1 STRESS PERIOD    1
  ------------------------------------------------------------------------------



     CUMULATIVE VOLUMES      L**3       RATES FOR THIS TIME STEP      L**3/T
     ------------------                 ------------------------

           IN:                                      IN:
           ---                                      ---
        INFILTRATION =     2227230.0000          INFILTRATION =           0.8475

          OUT:                                     OUT:
          ----                                     ----
              UZF ET =       0.0000E+00                UZF ET =       0.0000E+00
        UZF RECHARGE =     2227230.0000          UZF RECHARGE =           0.8475

            IN - OUT =       0.0000E+00              IN - OUT =       0.0000E+00

          STORAGE:                                 STORAGE:
          --------                                 --------
      STORAGE CHANGE =       0.0000E+00        STORAGE CHANGE =       0.0000E+00

 PERCENT DISCREPANCY IS DIFFERENCE BETWEEN IN-OUT MINUS CHANGE IN STORAGE
 DIVIDED BY THE AVERAGE OF IN AND OUT TIMES 100

 PERCENT DISCREPANCY =           0.00     PERCENT DISCREPANCY =           0.00






1
  VOLUMETRIC BUDGET FOR ENTIRE MODEL AT END OF TIME STEP    1, STRESS PERIOD   1
  ------------------------------------------------------------------------------

     CUMULATIVE VOLUMES      L**3       RATES FOR THIS TIME STEP      L**3/T
     ------------------                 ------------------------

           IN:                                      IN:
           ---                                      ---
             STORAGE =           0.0000               STORAGE =           0.0000
       CONSTANT HEAD =           0.0000         CONSTANT HEAD =           0.0000
               WELLS =           0.0000                 WELLS =           0.0000
     HEAD DEP BOUNDS =     2810993.2500       HEAD DEP BOUNDS =           1.0696
      STREAM LEAKAGE =     3593384.5000        STREAM LEAKAGE =           1.3673
        UZF RECHARGE =     2227228.7500          UZF RECHARGE =           0.8475
               GW ET =           0.0000                 GW ET =           0.0000
     SURFACE LEAKAGE =           0.0000       SURFACE LEAKAGE =           0.0000

            TOTAL IN =     8631607.0000              TOTAL IN =           3.2845

          OUT:                                     OUT:
          ----                                     ----
             STORAGE =           0.0000               STORAGE =           0.0000
       CONSTANT HEAD =           0.0000         CONSTANT HEAD =           0.0000
               WELLS =           0.0000                 WELLS =           0.0000
     HEAD DEP BOUNDS =      733518.2500       HEAD DEP BOUNDS =           0.2791
      STREAM LEAKAGE =     5927091.5000        STREAM LEAKAGE =           2.2554
        UZF RECHARGE =           0.0000          UZF RECHARGE =           0.0000
               GW ET =     1971000.0000                 GW ET =           0.7500
     SURFACE LEAKAGE =           0.0000       SURFACE LEAKAGE =           0.0000

           TOTAL OUT =     8631610.0000             TOTAL OUT =           3.2845

            IN - OUT =          -3.0000              IN - OUT =      -1.4305E-06

 PERCENT DISCREPANCY =          -0.00     PERCENT DISCREPANCY =          -0.00






         TIME SUMMARY AT END OF TIME STEP    1 IN STRESS PERIOD    1
                    SECONDS     MINUTES      HOURS       DAYS        YEARS
                    -----------------------------------------------------------
   TIME STEP LENGTH 2.62800E+06  43800.      730.00      30.417     8.32763E-02
 STRESS PERIOD TIME 2.62800E+06  43800.      730.00      30.417     8.32763E-02
         TOTAL TIME 2.62800E+06  43800.      730.00      30.417     8.32763E-02
1
1
                            STRESS PERIOD NO.    2, LENGTH =   2628000.    
                            -----------------------------------------------

                              NUMBER OF TIME STEPS =    30

                               MULTIPLIER FOR DELT =     1.000

                            INITIAL TIME STEP SIZE =   87600.00    

 WELL NO.  LAYER   ROW   COL   STRESS RATE         
 --------------------------------------------------
      1      1      6      4       0.000    
      2      1      6      7       0.000    
      3      1      7      4       0.000    
      4      1      7      5       0.000    
      5      1      8      4       0.000    
      6      1      8      5       0.000    
      7      1      9      4       0.000    
      8      1      9      5       0.000    
      9      1     10      4       0.000    
     10      1     10      5       0.000    

     10 WELLS

 REUSING NON-PARAMETER GHB CELLS FROM LAST STRESS PERIOD

      2 GHB CELLS

 REUSING STREAM SEGMENT DATA FROM LAST STRESS PERIOD



            AREAL INFILTRATION RATE
 READING ON UNIT   19 WITH FORMAT: (10F4.0)            

            1           2           3           4           5           6           7           8           9          10
 ........................................................................................................................
   1   1.0000E-10  2.0000E-10   0.000       0.000       0.000       0.000       0.000       0.000       0.000       0.000    
   2   2.0000E-10  1.0000E-10  2.0000E-10   0.000       0.000      8.0000E-10  8.0000E-10  5.0000E-10   0.000       0.000    
   3    0.000      5.0000E-10  1.0000E-10  1.0000E-10  8.0000E-10  8.0000E-10  5.0000E-10  5.0000E-10   0.000       0.000    
   4   8.0000E-10  5.0000E-10  1.0000E-10  1.0000E-10  1.0000E-10  1.0000E-10  1.0000E-10  1.0000E-10  2.0000E-10   0.000    
   5   8.0000E-10  5.0000E-10  1.0000E-10  1.0000E-10  1.0000E-10  1.0000E-10  1.0000E-10  1.0000E-10  1.0000E-10  1.0000E-10
   6   8.0000E-10  5.0000E-10  5.0000E-10  2.0000E-10  2.0000E-10  1.0000E-10  1.0000E-10  1.0000E-10  1.0000E-10  5.0000E-10
   7   8.0000E-10  5.0000E-10  5.0000E-10  2.0000E-10  2.0000E-10  1.0000E-10  1.0000E-10  2.0000E-10  2.0000E-10   0.000    
   8    0.000      5.0000E-10  5.0000E-10  2.0000E-10  2.0000E-10  1.0000E-10  1.0000E-10  2.0000E-10  5.0000E-10   0.000    
   9    0.000      5.0000E-10  5.0000E-10  2.0000E-10  2.0000E-10  1.0000E-10  1.0000E-10  2.0000E-10  5.0000E-10   0.000    
  10    0.000      5.0000E-10  5.0000E-10  2.0000E-10  2.0000E-10  1.0000E-10  1.0000E-10  2.0000E-10  5.0000E-10  8.0000E-10
  11    0.000      1.0000E-10  1.0000E-10  1.0000E-10  1.0000E-10  1.0000E-10  1.0000E-10  2.0000E-10  5.0000E-10   0.000    
  12   1.0000E-10  1.0000E-10  1.0000E-10  1.0000E-10  1.0000E-10  1.0000E-10  1.0000E-10  1.0000E-10  2.0000E-10   0.000    
  13   1.0000E-10  1.0000E-10  2.0000E-10  2.0000E-10  2.0000E-10  2.0000E-10  2.0000E-10  1.0000E-10  1.0000E-10   0.000    
  14    0.000      2.0000E-10  5.0000E-10  5.0000E-10  5.0000E-10  5.0000E-10  5.0000E-10  2.0000E-10  1.0000E-10   0.000    
  15    0.000       0.000      8.0000E-10  8.0000E-10  8.0000E-10  8.0000E-10   0.000       0.000       0.000       0.000    

                  ET RATE =  1.000000E-10

 USING ET EXTINCTION DEPTH FROM PREVIOUS STRESS PERIOD. CURRENT PERIOD IS:       2

 USING EXTINCTION WATER CONTENT FROM PREVIOUS STRESS PERIOD. CURRENT PERIOD IS:       2
 
 SOLVING FOR HEAD 
                                                   Max.-Head-Change                         Max.-Flux-Residual
  Residual-Control   Outer-Iter.   Inner-Iter.     Column Row Layer    Maximum-Head-Change  Column Row Layer    Maximum-Flux-Residual          L2-NORM 
          0                 1           2             2   13     1       0.1605121590E-01       2   13    1         0.9052050315E+00      0.2239522183E+01
          0                 2           2             5    3     1       0.6910807813E-02       5    3    1         0.1822990196E+00      0.6475316950E+00
          0                 3           2             5    3     1       0.3043423391E-02       5    3    1         0.8038315521E-01      0.2593814879E+00
          0                 4           2             5    3     1       0.1339284125E-02       5    3    1         0.3538951575E-01      0.1137471323E+00
          0                 5           2             5    3     1       0.5892121576E-03       5    3    1         0.1557183524E-01      0.5063226648E-01
          0                 6           2             5    3     1       0.2592033248E-03       5    3    1         0.6850523746E-02      0.2258913032E-01
          0                 7           2             5    3     1       0.1140277679E-03       5    3    1         0.3013625140E-02      0.1008208411E-01
          0                 8           1             6    3     1       0.5022853464E-04       5    3    1         0.1325746048E-02      0.4500518727E-02
          0                 9           1             6    3     1       0.2235975657E-04       6    3    1         0.5852622875E-03      0.2009179241E-02
          0                10           1             6    3     1       0.9953405699E-05       6    3    1         0.2605342357E-03      0.8970483234E-03

    ------------------------------------------------
       NWT REQUIRED           10 OUTER ITERATIONS 
       AND A TOTAL OF         17 INNER ITERATIONS.
    ------------------------------------------------

 OUTPUT CONTROL FOR STRESS PERIOD    2   TIME STEP    1
    PRINT BUDGET
    SAVE BUDGET
 UBUDSV SAVING "         STORAGE" ON UNIT102 AT TIME STEP     1, STRESS PERIOD    2
 UBUDSV SAVING "   CONSTANT HEAD" ON UNIT102 AT TIME STEP     1, STRESS PERIOD    2
 UBUDSV SAVING "FLOW RIGHT FACE " ON UNIT102 AT TIME STEP     1, STRESS PERIOD    2
 UBUDSV SAVING "FLOW FRONT FACE " ON UNIT102 AT TIME STEP     1, STRESS PERIOD    2

  HEAD DEP BOUNDS   PERIOD    2   STEP     1
 BOUNDARY      1   LAYER   1   ROW    13   COL     1   RATE   -0.279662    
 BOUNDARY      2   LAYER   1   ROW    14   COL     9   RATE     1.06950    



 STREAM LISTING     PERIOD      2   STEP        1

 LAYER ROW COL. STREAM  RCH.  FLOW INTO     FLOW TO   FLOW OUT OF   OVRLND.     DIRECT     STREAM       STREAM     STREAM     STREAM   STREAMBED  STREAMBED
                SEG.NO.  NO.  STRM. RCH.    AQUIFER    STRM. RCH.    RUNOFF     PRECIP       ET          HEAD       DEPTH      WIDTH   CONDCTNC.   GRADIENT

   1    1    1     1     1    2.1498E+01  2.2840E-09   2.1498E+01  0.000E+00  0.000E+00  0.000E+00  1.09417E+03  1.123E+00  1.231E+01  5.539E-10  1.374E+00
   1    2    2     1     2    2.1498E+01  3.5480E-09   2.1498E+01  0.000E+00  0.000E+00  0.000E+00  1.08918E+03  1.122E+00  1.230E+01  8.607E-10  1.374E+00
   1    3    3     1     3    2.1498E+01  3.0428E-09   2.1498E+01  0.000E+00  0.000E+00  0.000E+00  1.08354E+03  1.123E+00  1.230E+01  7.380E-10  1.374E+00
   1    3    4     1     4    2.1498E+01  2.8153E-09   2.1498E+01  0.000E+00  0.000E+00  0.000E+00  1.07853E+03  1.123E+00  1.230E+01  6.828E-10  1.374E+00
   1    4    5     2     1    1.9498E+01  3.1475E-01   1.9183E+01  0.000E+00  0.000E+00  0.000E+00  1.07297E+03  1.035E+00  1.200E+01  7.800E-02  1.345E+00
   1    5    6     2     2    1.9183E+01  2.4157E-01   1.8941E+01  0.000E+00  0.000E+00  0.000E+00  1.06754E+03  1.026E+00  1.200E+01  6.000E-02  1.342E+00
   1    6    6     2     3    1.8941E+01  2.4111E-01   1.8700E+01  0.000E+00  0.000E+00  0.000E+00  1.06281E+03  1.018E+00  1.200E+01  6.000E-02  1.339E+00
   1    7    6     2     4    1.8700E+01  2.4063E-01   1.8460E+01  0.000E+00  0.000E+00  0.000E+00  1.05809E+03  1.011E+00  1.200E+01  6.000E-02  1.337E+00
   1    8    6     2     5    1.8460E+01  2.4016E-01   1.8219E+01  0.000E+00  0.000E+00  0.000E+00  1.05336E+03  1.003E+00  1.200E+01  6.000E-02  1.334E+00
   1    3    5     3     1    2.0000E+00  2.8252E-01   1.7175E+00  0.000E+00  0.000E+00  0.000E+00  1.07555E+03  1.909E+00  9.636E+00  7.227E-02  1.955E+00
   1    3    6     3     2    1.7175E+00  2.4905E-01   1.4684E+00  0.000E+00  0.000E+00  0.000E+00  1.07264E+03  1.727E+00  8.909E+00  6.682E-02  1.864E+00
   1    3    7     3     3    1.4684E+00  1.9718E-01   1.2712E+00  0.000E+00  0.000E+00  0.000E+00  1.06987E+03  1.555E+00  8.218E+00  5.547E-02  1.777E+00
   1    4    8     3     4    1.2712E+00  2.2567E-01   1.0456E+00  0.000E+00  0.000E+00  0.000E+00  1.06682E+03  1.364E+00  7.455E+00  6.709E-02  1.682E+00
   1    5    8     3     5    1.0456E+00  1.5790E-01   8.8768E-01  0.000E+00  0.000E+00  0.000E+00  1.06362E+03  1.164E+00  6.655E+00  4.991E-02  1.582E+00
   1    6    8     3     6    8.8768E-01  5.5980E-02   8.3170E-01  0.000E+00  0.000E+00  0.000E+00  1.06158E+03  1.036E+00  6.145E+00  1.844E-02  1.518E+00
   1    5   10     4     1    1.0000E+01  9.0919E-02   9.9091E+00  0.000E+00  0.000E+00  0.000E+00  1.07836E+03  6.368E-01  1.000E+01  2.500E-02  1.212E+00
   1    5    9     4     2    9.9091E+00  1.8158E-01   9.7275E+00  0.000E+00  0.000E+00  0.000E+00  1.07154E+03  6.315E-01  1.000E+01  5.000E-02  1.211E+00
   1    6    8     4     3    9.7275E+00  1.2689E-01   9.6006E+00  0.000E+00  0.000E+00  0.000E+00  1.06381E+03  6.256E-01  1.000E+01  3.500E-02  1.209E+00
   1    6    8     5     1    1.0432E+01  2.2686E-09   1.0432E+01  0.000E+00  0.000E+00  0.000E+00  1.05868E+03  6.790E-01  1.542E+01  6.166E-10  1.226E+00
   1    7    7     5     2    1.0432E+01  2.8306E-09   1.0432E+01  0.000E+00  0.000E+00  0.000E+00  1.05418E+03  6.784E-01  1.539E+01  7.695E-10  1.226E+00
   1    8    7     5     3    1.0432E+01  1.9868E-09   1.0432E+01  0.000E+00  0.000E+00  0.000E+00  1.04993E+03  6.794E-01  1.543E+01  5.400E-10  1.226E+00
   1    8    6     5     4    1.0432E+01  1.4217E-09   1.0432E+01  0.000E+00  0.000E+00  0.000E+00  1.04693E+03  6.800E-01  1.545E+01  3.863E-10  1.227E+00
   1    9    6     6     1    2.8652E+01  2.5929E-01   2.8393E+01  0.000E+00  0.000E+00  0.000E+00  1.04405E+03  1.322E+00  1.200E+01  6.000E-02  1.441E+00
   1   10    7     6     2    2.8393E+01  2.5886E-01   2.8134E+01  0.000E+00  0.000E+00  0.000E+00  1.03950E+03  1.314E+00  1.200E+01  6.000E-02  1.438E+00
   1   11    7     6     3    2.8134E+01  2.5843E-01   2.7875E+01  0.000E+00  0.000E+00  0.000E+00  1.03494E+03  1.307E+00  1.200E+01  6.000E-02  1.436E+00
   1   12    7     6     4    2.7875E+01  2.5799E-01   2.7617E+01  0.000E+00  0.000E+00  0.000E+00  1.03039E+03  1.300E+00  1.200E+01  6.000E-02  1.433E+00
   1   13    7     6     5    2.7617E+01  1.0307E-01   2.7514E+01  0.000E+00  0.000E+00  0.000E+00  1.02720E+03  1.295E+00  1.200E+01  2.400E-02  1.432E+00
   1   14    9     7     1    1.5000E+02  2.9539E-08   1.5000E+02  0.000E+00  0.000E+00  0.000E+00  1.03986E+03  2.283E+00  5.528E+01  5.591E-09  1.761E+00
   1   13    8     7     2    1.5000E+02  3.2486E-14   1.5000E+02  0.000E+00  0.000E+00  0.000E+00  1.03478E+03  2.283E+00  5.527E+01  6.150E-15  1.761E+00
   1   13    7     7     3    1.5000E+02  2.9539E-08   1.5000E+02  0.000E+00  0.000E+00  0.000E+00  1.02970E+03  2.283E+00  5.528E+01  5.591E-09  1.761E+00
   1   13    6     8     1    1.7751E+02  2.6491E-15   1.7751E+02  0.000E+00  0.000E+00  0.000E+00  1.02487E+03  2.992E+00  4.338E+01  4.421E-16  1.997E+00
   1   13    5     8     2    1.7751E+02  2.6491E-17   1.7751E+02  0.000E+00  0.000E+00  0.000E+00  1.01862E+03  2.992E+00  4.338E+01  4.421E-18  1.997E+00
   1   13    4     8     3    1.7751E+02  2.4935E-14   1.7751E+02  0.000E+00  0.000E+00  0.000E+00  1.01237E+03  2.993E+00  4.339E+01  4.422E-15  1.880E+00
   1   13    3     8     4    1.7751E+02  7.9621E-18   1.7751E+02  0.000E+00  0.000E+00  0.000E+00  1.00612E+03  2.998E+00  4.347E+01  4.430E-18  5.991E-01
   1   13    2     8     5    1.7751E+02 -3.3619E-01   1.7785E+02  0.000E+00  0.000E+00  0.000E+00  9.99877E+02  3.002E+00  4.352E+01  4.435E+00 -2.527E-02
   1   13    1     8     6    1.7785E+02 -1.2739E+00   1.7912E+02  0.000E+00  0.000E+00  0.000E+00  9.94882E+02  3.007E+00  4.360E+01  2.666E+00 -1.593E-01
   1    6    8     9     1    0.0000E+00  0.0000E+00   0.0000E+00  0.000E+00  0.000E+00  0.000E+00  1.07850E+03  0.000E+00  4.000E+00  0.000E+00  1.000E+00



 UBDSV3 SAVING "     NETRECHARGE" ON UNIT 100 AT TIME STEP     1, STRESS PERIOD   2
 UBDSV3 SAVING "    NETDISCHARGE" ON UNIT 101 AT TIME STEP     1, STRESS PERIOD   2
 UBDSV3 SAVING "           GW ET" ON UNIT  61 AT TIME STEP     1, STRESS PERIOD   2
 UBDSV3 SAVING "    UZF RECHARGE" ON UNIT  61 AT TIME STEP     1, STRESS PERIOD   2
 UBDSV3 SAVING " SURFACE LEAKAGE" ON UNIT  61 AT TIME STEP     1, STRESS PERIOD   2
 UBDSV3 SAVING "       HORT+DUNN" ON UNIT  61 AT TIME STEP     1, STRESS PERIOD   2
 UBDSV3 SAVING "  STORAGE CHANGE" ON UNIT  61 AT TIME STEP     1, STRESS PERIOD   2


UNSATURATED ZONE PACKAGE VOLUMETRIC BUDGET FOR  TIME STEP     1 STRESS PERIOD    2
  ------------------------------------------------------------------------------



     CUMULATIVE VOLUMES      L**3       RATES FOR THIS TIME STEP      L**3/T
     ------------------                 ------------------------

           IN:                                      IN:
           ---                                      ---
        INFILTRATION =     2301471.0000          INFILTRATION =           0.8475

          OUT:                                     OUT:
          ----                                     ----
              UZF ET =       25093.2415                UZF ET =           0.2865
        UZF RECHARGE =     4865941.1074          UZF RECHARGE =          30.1223

            IN - OUT =    -2589563.3489              IN - OUT =         -29.5612

          STORAGE:                                 STORAGE:
          --------                                 --------
      STORAGE CHANGE =    -2588941.7856        STORAGE CHANGE =         -29.5541

 PERCENT DISCREPANCY IS DIFFERENCE BETWEEN IN-OUT MINUS CHANGE IN STORAGE
 DIVIDED BY THE AVERAGE OF IN AND OUT TIMES 100

 PERCENT DISCREPANCY =          -0.00     PERCENT DISCREPANCY =          -0.02






1
  VOLUMETRIC BUDGET FOR ENTIRE MODEL AT END OF TIME STEP    1, STRESS PERIOD   2
  ------------------------------------------------------------------------------

     CUMULATIVE VOLUMES      L**3       RATES FOR THIS TIME STEP      L**3/T
     ------------------                 ------------------------

           IN:                                      IN:
           ---                                      ---
             STORAGE =           0.0000               STORAGE =           0.0000
       CONSTANT HEAD =           0.0000         CONSTANT HEAD =           0.0000
               WELLS =           0.0000                 WELLS =           0.0000
     HEAD DEP BOUNDS =     2904681.5000       HEAD DEP BOUNDS =           1.0695
      STREAM LEAKAGE =     3942343.7500        STREAM LEAKAGE =           3.9836
        UZF RECHARGE =     4865940.0000          UZF RECHARGE =          30.1223
               GW ET =           0.0000                 GW ET =           0.0000
     SURFACE LEAKAGE =           0.0000       SURFACE LEAKAGE =           0.0000

            TOTAL IN =    11712965.0000              TOTAL IN =          35.1753

          OUT:                                     OUT:
          ----                                     ----
             STORAGE =     2915253.2500               STORAGE =          33.2791
       CONSTANT HEAD =           0.0000         CONSTANT HEAD =           0.0000
               WELLS =           0.0000                 WELLS =           0.0000
     HEAD DEP BOUNDS =      758016.6875       HEAD DEP BOUNDS =           0.2797
      STREAM LEAKAGE =     6068132.0000        STREAM LEAKAGE =           1.6100
        UZF RECHARGE =           0.0000          UZF RECHARGE =           0.0000
               GW ET =     1971310.7500                 GW ET =       3.5475E-03
     SURFACE LEAKAGE =           0.0000       SURFACE LEAKAGE =           0.0000

           TOTAL OUT =    11712713.0000             TOTAL OUT =          35.1724

            IN - OUT =         252.0000              IN - OUT =       2.9182E-03

 PERCENT DISCREPANCY =           0.00     PERCENT DISCREPANCY =           0.01






         TIME SUMMARY AT END OF TIME STEP    1 IN STRESS PERIOD    2
                    SECONDS     MINUTES      HOURS       DAYS        YEARS
                    -----------------------------------------------------------
   TIME STEP LENGTH  87600.      1460.0      24.333      1.0139     2.77588E-03
 STRESS PERIOD TIME  87600.      1460.0      24.333      1.0139     2.77588E-03
         TOTAL TIME 2.71560E+06  45260.      754.33      31.431     8.60522E-02
1
 
 SOLVING FOR HEAD 
                                                   Max.-Head-Change                         Max.-Flux-Residual
  Residual-Control   Outer-Iter.   Inner-Iter.     Column Row Layer    Maximum-Head-Change  Column Row Layer    Maximum-Flux-Residual          L2-NORM 
          0                 1           2             5    3     1       0.1530389206E-01       2   13    1         0.8272720143E+00      0.2194449285E+01
          0                 2           2             5    3     1       0.6753978427E-02       5    3    1         0.1781485831E+00      0.6407429080E+00
          0                 3           2             5    3     1       0.2974563488E-02       5    3    1         0.7856034003E-01      0.2574807716E+00
          0                 4           2             5    3     1       0.1309052715E-02       5    3    1         0.3458920802E-01      0.1129749129E+00
          0                 5           2             5    3     1       0.5759397885E-03       5    3    1         0.1522048188E-01      0.5029608035E-01
          0                 6           2             5    3     1       0.2533762718E-03       5    3    1         0.6696270279E-02      0.2244146513E-01
          0                 7           2             6    3     1       0.1116011219E-03       5    3    1         0.2945901903E-02      0.1001714489E-01
          0                 8           1             6    3     1       0.4968064990E-04       6    3    1         0.1300376570E-02      0.4471953307E-02
          0                 9           1             6    3     1       0.2211533418E-04       6    3    1         0.5788757221E-03      0.1996612472E-02
          0                10           1             6    3     1       0.9844377418E-05       6    3    1         0.2576851220E-03      0.8915174137E-03

    ------------------------------------------------
       NWT REQUIRED           10 OUTER ITERATIONS 
       AND A TOTAL OF         17 INNER ITERATIONS.
    ------------------------------------------------

 OUTPUT CONTROL WAS SPECIFIED FOR A NONEXISTENT TIME STEP
 OR OUTPUT CONTROL DATA ARE NOT ENTERED IN ASCENDING ORDER
 OUTPUT CONTROL STRESS PERIOD    1   TIME STEP    5
 MODEL STRESS PERIOD    2   TIME STEP    2
 APPLYING THE SPECIFIED OUTPUT CONTROL TO THE CURRENT TIME STEP

 OUTPUT CONTROL FOR STRESS PERIOD    2   TIME STEP    2
    PRINT BUDGET
    SAVE BUDGET
 UBUDSV SAVING "         STORAGE" ON UNIT102 AT TIME STEP     2, STRESS PERIOD    2
 UBUDSV SAVING "   CONSTANT HEAD" ON UNIT102 AT TIME STEP     2, STRESS PERIOD    2
 UBUDSV SAVING "FLOW RIGHT FACE " ON UNIT102 AT TIME STEP     2, STRESS PERIOD    2
 UBUDSV SAVING "FLOW FRONT FACE " ON UNIT102 AT TIME STEP     2, STRESS PERIOD    2

  HEAD DEP BOUNDS   PERIOD    2   STEP     2
 BOUNDARY      1   LAYER   1   ROW    13   COL     1   RATE   -0.280183    
 BOUNDARY      2   LAYER   1   ROW    14   COL     9   RATE     1.06937    



 STREAM LISTING     PERIOD      2   STEP        2

 LAYER ROW COL. STREAM  RCH.  FLOW INTO     FLOW TO   FLOW OUT OF   OVRLND.     DIRECT     STREAM       STREAM     STREAM     STREAM   STREAMBED  STREAMBED
                SEG.NO.  NO.  STRM. RCH.    AQUIFER    STRM. RCH.    RUNOFF     PRECIP       ET          HEAD       DEPTH      WIDTH   CONDCTNC.   GRADIENT

   1    1    1     1     1    2.2000E+01  2.3088E-09   2.2000E+01  0.000E+00  0.000E+00  0.000E+00  1.09418E+03  1.132E+00  1.242E+01  5.588E-10  1.377E+00
   1    2    2     1     2    2.2000E+01  3.5866E-09   2.2000E+01  0.000E+00  0.000E+00  0.000E+00  1.08919E+03  1.131E+00  1.240E+01  8.683E-10  1.377E+00
   1    3    3     1     3    2.2000E+01  3.0759E-09   2.2000E+01  0.000E+00  0.000E+00  0.000E+00  1.08355E+03  1.131E+00  1.241E+01  7.446E-10  1.377E+00
   1    3    4     1     4    2.2000E+01  2.8459E-09   2.2000E+01  0.000E+00  0.000E+00  0.000E+00  1.07854E+03  1.131E+00  1.241E+01  6.889E-10  1.377E+00
   1    4    5     2     1    2.0000E+01  3.1600E-01   1.9684E+01  0.000E+00  0.000E+00  0.000E+00  1.07299E+03  1.051E+00  1.200E+01  7.800E-02  1.350E+00
   1    5    6     2     2    1.9684E+01  2.4254E-01   1.9441E+01  0.000E+00  0.000E+00  0.000E+00  1.06755E+03  1.042E+00  1.200E+01  6.000E-02  1.347E+00
   1    6    6     2     3    1.9441E+01  2.4207E-01   1.9199E+01  0.000E+00  0.000E+00  0.000E+00  1.06283E+03  1.035E+00  1.200E+01  6.000E-02  1.345E+00
   1    7    6     2     4    1.9199E+01  2.4161E-01   1.8958E+01  0.000E+00  0.000E+00  0.000E+00  1.05810E+03  1.027E+00  1.200E+01  6.000E-02  1.342E+00
   1    8    6     2     5    1.8958E+01  2.4114E-01   1.8717E+01  0.000E+00  0.000E+00  0.000E+00  1.05338E+03  1.019E+00  1.200E+01  6.000E-02  1.340E+00
   1    3    5     3     1    2.0000E+00  2.8252E-01   1.7175E+00  0.000E+00  0.000E+00  0.000E+00  1.07555E+03  1.909E+00  9.636E+00  7.227E-02  1.955E+00
   1    3    6     3     2    1.7175E+00  2.4905E-01   1.4684E+00  0.000E+00  0.000E+00  0.000E+00  1.07264E+03  1.727E+00  8.909E+00  6.682E-02  1.864E+00
   1    3    7     3     3    1.4684E+00  1.9718E-01   1.2712E+00  0.000E+00  0.000E+00  0.000E+00  1.06987E+03  1.555E+00  8.218E+00  5.547E-02  1.777E+00
   1    4    8     3     4    1.2712E+00  2.2567E-01   1.0456E+00  0.000E+00  0.000E+00  0.000E+00  1.06682E+03  1.364E+00  7.455E+00  6.709E-02  1.682E+00
   1    5    8     3     5    1.0456E+00  1.5790E-01   8.8768E-01  0.000E+00  0.000E+00  0.000E+00  1.06362E+03  1.164E+00  6.655E+00  4.991E-02  1.582E+00
   1    6    8     3     6    8.8768E-01  5.5980E-02   8.3170E-01  0.000E+00  0.000E+00  0.000E+00  1.06158E+03  1.036E+00  6.145E+00  1.844E-02  1.518E+00
   1    5   10     4     1    1.0000E+01  9.0919E-02   9.9091E+00  0.000E+00  0.000E+00  0.000E+00  1.07836E+03  6.368E-01  1.000E+01  2.500E-02  1.212E+00
   1    5    9     4     2    9.9091E+00  1.8158E-01   9.7275E+00  0.000E+00  0.000E+00  0.000E+00  1.07154E+03  6.315E-01  1.000E+01  5.000E-02  1.211E+00
   1    6    8     4     3    9.7275E+00  1.2689E-01   9.6006E+00  0.000E+00  0.000E+00  0.000E+00  1.06381E+03  6.256E-01  1.000E+01  3.500E-02  1.209E+00
   1    6    8     5     1    1.0432E+01  2.2686E-09   1.0432E+01  0.000E+00  0.000E+00  0.000E+00  1.05868E+03  6.790E-01  1.542E+01  6.166E-10  1.226E+00
   1    7    7     5     2    1.0432E+01  2.8306E-09   1.0432E+01  0.000E+00  0.000E+00  0.000E+00  1.05418E+03  6.784E-01  1.539E+01  7.695E-10  1.226E+00
   1    8    7     5     3    1.0432E+01  1.9868E-09   1.0432E+01  0.000E+00  0.000E+00  0.000E+00  1.04993E+03  6.794E-01  1.543E+01  5.400E-10  1.226E+00
   1    8    6     5     4    1.0432E+01  1.4217E-09   1.0432E+01  0.000E+00  0.000E+00  0.000E+00  1.04693E+03  6.800E-01  1.545E+01  3.863E-10  1.227E+00
   1    9    6     6     1    2.9149E+01  2.6012E-01   2.8889E+01  0.000E+00  0.000E+00  0.000E+00  1.04406E+03  1.335E+00  1.200E+01  6.000E-02  1.445E+00
   1   10    7     6     2    2.8889E+01  2.5969E-01   2.8629E+01  0.000E+00  0.000E+00  0.000E+00  1.03951E+03  1.328E+00  1.200E+01  6.000E-02  1.443E+00
   1   11    7     6     3    2.8629E+01  2.5925E-01   2.8370E+01  0.000E+00  0.000E+00  0.000E+00  1.03496E+03  1.321E+00  1.200E+01  6.000E-02  1.440E+00
   1   12    7     6     4    2.8370E+01  2.5882E-01   2.8111E+01  0.000E+00  0.000E+00  0.000E+00  1.03040E+03  1.314E+00  1.200E+01  6.000E-02  1.438E+00
   1   13    7     6     5    2.8111E+01  1.0341E-01   2.8008E+01  0.000E+00  0.000E+00  0.000E+00  1.02722E+03  1.309E+00  1.200E+01  2.400E-02  1.436E+00
   1   14    9     7     1    1.5000E+02  2.9539E-08   1.5000E+02  0.000E+00  0.000E+00  0.000E+00  1.03986E+03  2.283E+00  5.528E+01  5.591E-09  1.761E+00
   1   13    8     7     2    1.5000E+02  3.2486E-14   1.5000E+02  0.000E+00  0.000E+00  0.000E+00  1.03478E+03  2.283E+00  5.527E+01  6.150E-15  1.761E+00
   1   13    7     7     3    1.5000E+02  2.9539E-08   1.5000E+02  0.000E+00  0.000E+00  0.000E+00  1.02970E+03  2.283E+00  5.528E+01  5.591E-09  1.761E+00
   1   13    6     8     1    1.7801E+02  2.6533E-11   1.7801E+02  0.000E+00  0.000E+00  0.000E+00  1.02487E+03  2.995E+00  4.343E+01  4.426E-12  1.998E+00
   1   13    5     8     2    1.7801E+02  0.0000E+00   1.7801E+02  0.000E+00  0.000E+00  0.000E+00  1.01863E+03  3.004E+00  4.355E+01  0.000E+00  2.001E+00
   1   13    4     8     3    1.7801E+02  2.4959E-14   1.7801E+02  0.000E+00  0.000E+00  0.000E+00  1.01237E+03  2.996E+00  4.344E+01  4.426E-15  1.880E+00
   1   13    3     8     4    1.7801E+02  7.9441E-08   1.7801E+02  0.000E+00  0.000E+00  0.000E+00  1.00613E+03  3.001E+00  4.352E+01  4.434E-08  5.972E-01
   1   13    2     8     5    1.7801E+02 -3.9893E-01   1.7841E+02  0.000E+00  0.000E+00  0.000E+00  9.99880E+02  3.005E+00  4.357E+01  4.440E+00 -2.995E-02
   1   13    1     8     6    1.7841E+02 -1.3024E+00   1.7971E+02  0.000E+00  0.000E+00  0.000E+00  9.94885E+02  3.010E+00  4.365E+01  2.669E+00 -1.627E-01
   1    6    8     9     1    0.0000E+00  0.0000E+00   0.0000E+00  0.000E+00  0.000E+00  0.000E+00  1.07850E+03  0.000E+00  4.000E+00  0.000E+00  1.000E+00



 UBDSV3 SAVING "     NETRECHARGE" ON UNIT 100 AT TIME STEP     2, STRESS PERIOD   2
 UBDSV3 SAVING "    NETDISCHARGE" ON UNIT 101 AT TIME STEP     2, STRESS PERIOD   2
 UBDSV3 SAVING "           GW ET" ON UNIT  61 AT TIME STEP     2, STRESS PERIOD   2
 UBDSV3 SAVING "    UZF RECHARGE" ON UNIT  61 AT TIME STEP     2, STRESS PERIOD   2
 UBDSV3 SAVING " SURFACE LEAKAGE" ON UNIT  61 AT TIME STEP     2, STRESS PERIOD   2
 UBDSV3 SAVING "       HORT+DUNN" ON UNIT  61 AT TIME STEP     2, STRESS PERIOD   2
 UBDSV3 SAVING "  STORAGE CHANGE" ON UNIT  61 AT TIME STEP     2, STRESS PERIOD   2


UNSATURATED ZONE PACKAGE VOLUMETRIC BUDGET FOR  TIME STEP     2 STRESS PERIOD    2
  ------------------------------------------------------------------------------



     CUMULATIVE VOLUMES      L**3       RATES FOR THIS TIME STEP      L**3/T
     ------------------                 ------------------------

           IN:                                      IN:
           ---                                      ---
        INFILTRATION =     2375712.0000          INFILTRATION =           0.8475

          OUT:                                     OUT:
          ----                                     ----
              UZF ET =       50184.6224                UZF ET =           0.2864
        UZF RECHARGE =     7499584.4590          UZF RECHARGE =          30.0644

            IN - OUT =    -5174057.0814              IN - OUT =         -29.5034

          STORAGE:                                 STORAGE:
          --------                                 --------
      STORAGE CHANGE =    -5173430.9280        STORAGE CHANGE =         -29.5033

 PERCENT DISCREPANCY IS DIFFERENCE BETWEEN IN-OUT MINUS CHANGE IN STORAGE
 DIVIDED BY THE AVERAGE OF IN AND OUT TIMES 100

 PERCENT DISCREPANCY =          -0.00     PERCENT DISCREPANCY =          -0.00






1
  VOLUMETRIC BUDGET FOR ENTIRE MODEL AT END OF TIME STEP    2, STRESS PERIOD   2
  ------------------------------------------------------------------------------

     CUMULATIVE VOLUMES      L**3       RATES FOR THIS TIME STEP      L**3/T
     ------------------                 ------------------------

           IN:                                      IN:
           ---                                      ---
             STORAGE =           0.0000               STORAGE =           0.0000
       CONSTANT HEAD =           0.0000         CONSTANT HEAD =           0.0000
               WELLS =           0.0000                 WELLS =           0.0000
     HEAD DEP BOUNDS =     2998358.2500       HEAD DEP BOUNDS =           1.0694
      STREAM LEAKAGE =     4292071.5000        STREAM LEAKAGE =           3.9923
        UZF RECHARGE =     7499583.0000          UZF RECHARGE =          30.0644
               GW ET =           0.0000                 GW ET =           0.0000
     SURFACE LEAKAGE =           0.0000       SURFACE LEAKAGE =           0.0000

            TOTAL IN =    14790013.0000              TOTAL IN =          35.1261

          OUT:                                     OUT:
          ----                                     ----
             STORAGE =     5818156.5000               STORAGE =          33.1382
       CONSTANT HEAD =           0.0000         CONSTANT HEAD =           0.0000
               WELLS =           0.0000                 WELLS =           0.0000
     HEAD DEP BOUNDS =      782560.7500       HEAD DEP BOUNDS =           0.2802
      STREAM LEAKAGE =     6217166.0000        STREAM LEAKAGE =           1.7013
        UZF RECHARGE =           0.0000          UZF RECHARGE =           0.0000
               GW ET =     1971623.3750                 GW ET =       3.5687E-03
     SURFACE LEAKAGE =           0.0000       SURFACE LEAKAGE =           0.0000

           TOTAL OUT =    14789506.0000             TOTAL OUT =          35.1232

            IN - OUT =         507.0000              IN - OUT =       2.9030E-03

 PERCENT DISCREPANCY =           0.00     PERCENT DISCREPANCY =           0.01






         TIME SUMMARY AT END OF TIME STEP    2 IN STRESS PERIOD    2
                    SECONDS     MINUTES      HOURS       DAYS        YEARS
                    -----------------------------------------------------------
   TIME STEP LENGTH  87600.      1460.0      24.333      1.0139     2.77588E-03
 STRESS PERIOD TIME 1.75200E+05  2920.0      48.667      2.0278     5.55175E-03
         TOTAL TIME 2.80320E+06  46720.      778.67      32.444     8.88281E-02
1
 
 SOLVING FOR HEAD 
                                                   Max.-Head-Change                         Max.-Flux-Residual
  Residual-Control   Outer-Iter.   Inner-Iter.     Column Row Layer    Maximum-Head-Change  Column Row Layer    Maximum-Flux-Residual          L2-NORM 
          0                 1           2             5    3     1       0.1495824464E-01       2   13    1         0.7444327602E+00      0.2147963451E+01
          0                 2           2             5    3     1       0.6602108805E-02       5    3    1         0.1741299937E+00      0.6339228655E+00
          0                 3           2             5    3     1       0.2907874695E-02       5    3    1         0.7679511284E-01      0.2556187349E+00
          0                 4           2             5    3     1       0.1279773031E-02       5    3    1         0.3381412189E-01      0.1122234132E+00
          0                 5           2             5    3     1       0.5630848567E-03       5    3    1         0.1488018690E-01      0.4996919567E-01
          0                 6           2             6    3     1       0.2479895870E-03       5    3    1         0.6546867556E-02      0.2229787053E-01
          0                 7           2             6    3     1       0.1103965788E-03       6    3    1         0.2889582216E-02      0.9953986155E-02
          0                 8           1             6    3     1       0.4914325881E-04       6    3    1         0.1286335421E-02      0.4444165434E-02
          0                 9           1             6    3     1       0.2187561350E-04       6    3    1         0.5726115917E-03      0.1984383317E-02
          0                10           1             6    3     1       0.9737455197E-05       6    3    1         0.2548908668E-03      0.8861353163E-03

    ------------------------------------------------
       NWT REQUIRED           10 OUTER ITERATIONS 
       AND A TOTAL OF         17 INNER ITERATIONS.
    ------------------------------------------------

 OUTPUT CONTROL WAS SPECIFIED FOR A NONEXISTENT TIME STEP
 OR OUTPUT CONTROL DATA ARE NOT ENTERED IN ASCENDING ORDER
 OUTPUT CONTROL STRESS PERIOD    1   TIME STEP   10
 MODEL STRESS PERIOD    2   TIME STEP    3
 APPLYING THE SPECIFIED OUTPUT CONTROL TO THE CURRENT TIME STEP

 OUTPUT CONTROL FOR STRESS PERIOD    2   TIME STEP    3
    PRINT BUDGET
    SAVE BUDGET
 UBUDSV SAVING "         STORAGE" ON UNIT102 AT TIME STEP     3, STRESS PERIOD    2
 UBUDSV SAVING "   CONSTANT HEAD" ON UNIT102 AT TIME STEP     3, STRESS PERIOD    2
 UBUDSV SAVING "FLOW RIGHT FACE " ON UNIT102 AT TIME STEP     3, STRESS PERIOD    2
 UBUDSV SAVING "FLOW FRONT FACE " ON UNIT102 AT TIME STEP     3, STRESS PERIOD    2

  HEAD DEP BOUNDS   PERIOD    2   STEP     3
 BOUNDARY      1   LAYER   1   ROW    13   COL     1   RATE   -0.280675    
 BOUNDARY      2   LAYER   1   ROW    14   COL     9   RATE     1.06924    



 STREAM LISTING     PERIOD      2   STEP        3

 LAYER ROW COL. STREAM  RCH.  FLOW INTO     FLOW TO   FLOW OUT OF   OVRLND.     DIRECT     STREAM       STREAM     STREAM     STREAM   STREAMBED  STREAMBED
                SEG.NO.  NO.  STRM. RCH.    AQUIFER    STRM. RCH.    RUNOFF     PRECIP       ET          HEAD       DEPTH      WIDTH   CONDCTNC.   GRADIENT

   1    1    1     1     1    2.2000E+01  2.3088E-09   2.2000E+01  0.000E+00  0.000E+00  0.000E+00  1.09418E+03  1.132E+00  1.242E+01  5.588E-10  1.377E+00
   1    2    2     1     2    2.2000E+01  3.5866E-09   2.2000E+01  0.000E+00  0.000E+00  0.000E+00  1.08919E+03  1.131E+00  1.240E+01  8.683E-10  1.377E+00
   1    3    3     1     3    2.2000E+01  3.0759E-09   2.2000E+01  0.000E+00  0.000E+00  0.000E+00  1.08355E+03  1.131E+00  1.241E+01  7.446E-10  1.377E+00
   1    3    4     1     4    2.2000E+01  2.8459E-09   2.2000E+01  0.000E+00  0.000E+00  0.000E+00  1.07854E+03  1.131E+00  1.241E+01  6.889E-10  1.377E+00
   1    4    5     2     1    2.0000E+01  3.1600E-01   1.9684E+01  0.000E+00  0.000E+00  0.000E+00  1.07299E+03  1.051E+00  1.200E+01  7.800E-02  1.350E+00
   1    5    6     2     2    1.9684E+01  2.4254E-01   1.9441E+01  0.000E+00  0.000E+00  0.000E+00  1.06755E+03  1.042E+00  1.200E+01  6.000E-02  1.347E+00
   1    6    6     2     3    1.9441E+01  2.4207E-01   1.9199E+01  0.000E+00  0.000E+00  0.000E+00  1.06283E+03  1.035E+00  1.200E+01  6.000E-02  1.345E+00
   1    7    6     2     4    1.9199E+01  2.4161E-01   1.8958E+01  0.000E+00  0.000E+00  0.000E+00  1.05810E+03  1.027E+00  1.200E+01  6.000E-02  1.342E+00
   1    8    6     2     5    1.8958E+01  2.4114E-01   1.8717E+01  0.000E+00  0.000E+00  0.000E+00  1.05338E+03  1.019E+00  1.200E+01  6.000E-02  1.340E+00
   1    3    5     3     1    2.0000E+00  2.8252E-01   1.7175E+00  0.000E+00  0.000E+00  0.000E+00  1.07555E+03  1.909E+00  9.636E+00  7.227E-02  1.955E+00
   1    3    6     3     2    1.7175E+00  2.4905E-01   1.4684E+00  0.000E+00  0.000E+00  0.000E+00  1.07264E+03  1.727E+00  8.909E+00  6.682E-02  1.864E+00
   1    3    7     3     3    1.4684E+00  1.9718E-01   1.2712E+00  0.000E+00  0.000E+00  0.000E+00  1.06987E+03  1.555E+00  8.218E+00  5.547E-02  1.777E+00
   1    4    8     3     4    1.2712E+00  2.2567E-01   1.0456E+00  0.000E+00  0.000E+00  0.000E+00  1.06682E+03  1.364E+00  7.455E+00  6.709E-02  1.682E+00
   1    5    8     3     5    1.0456E+00  1.5790E-01   8.8768E-01  0.000E+00  0.000E+00  0.000E+00  1.06362E+03  1.164E+00  6.655E+00  4.991E-02  1.582E+00
   1    6    8     3     6    8.8768E-01  5.5980E-02   8.3170E-01  0.000E+00  0.000E+00  0.000E+00  1.06158E+03  1.036E+00  6.145E+00  1.844E-02  1.518E+00
   1    5   10     4     1    1.0000E+01  9.0919E-02   9.9091E+00  0.000E+00  0.000E+00  0.000E+00  1.07836E+03  6.368E-01  1.000E+01  2.500E-02  1.212E+00
   1    5    9     4     2    9.9091E+00  1.8158E-01   9.7275E+00  0.000E+00  0.000E+00  0.000E+00  1.07154E+03  6.315E-01  1.000E+01  5.000E-02  1.211E+00
   1    6    8     4     3    9.7275E+00  1.2689E-01   9.6006E+00  0.000E+00  0.000E+00  0.000E+00  1.06381E+03  6.256E-01  1.000E+01  3.500E-02  1.209E+00
   1    6    8     5     1    1.0432E+01  2.2686E-09   1.0432E+01  0.000E+00  0.000E+00  0.000E+00  1.05868E+03  6.790E-01  1.542E+01  6.166E-10  1.226E+00
   1    7    7     5     2    1.0432E+01  2.8306E-09   1.0432E+01  0.000E+00  0.000E+00  0.000E+00  1.05418E+03  6.784E-01  1.539E+01  7.695E-10  1.226E+00
   1    8    7     5     3    1.0432E+01  1.9868E-09   1.0432E+01  0.000E+00  0.000E+00  0.000E+00  1.04993E+03  6.794E-01  1.543E+01  5.400E-10  1.226E+00
   1    8    6     5     4    1.0432E+01  1.4217E-09   1.0432E+01  0.000E+00  0.000E+00  0.000E+00  1.04693E+03  6.800E-01  1.545E+01  3.863E-10  1.227E+00
   1    9    6     6     1    2.9149E+01  2.6012E-01   2.8889E+01  0.000E+00  0.000E+00  0.000E+00  1.04406E+03  1.335E+00  1.200E+01  6.000E-02  1.445E+00
   1   10    7     6     2    2.8889E+01  2.5969E-01   2.8629E+01  0.000E+00  0.000E+00  0.000E+00  1.03951E+03  1.328E+00  1.200E+01  6.000E-02  1.443E+00
   1   11    7     6     3    2.8629E+01  2.5925E-01   2.8370E+01  0.000E+00  0.000E+00  0.000E+00  1.03496E+03  1.321E+00  1.200E+01  6.000E-02  1.440E+00
   1   12    7     6     4    2.8370E+01  2.5882E-01   2.8111E+01  0.000E+00  0.000E+00  0.000E+00  1.03040E+03  1.314E+00  1.200E+01  6.000E-02  1.438E+00
   1   13    7     6     5    2.8111E+01  1.0341E-01   2.8008E+01  0.000E+00  0.000E+00  0.000E+00  1.02722E+03  1.309E+00  1.200E+01  2.400E-02  1.436E+00
   1   14    9     7     1    1.5000E+02  2.9539E-08   1.5000E+02  0.000E+00  0.000E+00  0.000E+00  1.03986E+03  2.283E+00  5.528E+01  5.591E-09  1.761E+00
   1   13    8     7     2    1.5000E+02  3.2486E-14   1.5000E+02  0.000E+00  0.000E+00  0.000E+00  1.03478E+03  2.283E+00  5.527E+01  6.150E-15  1.761E+00
   1   13    7     7     3    1.5000E+02  2.9539E-08   1.5000E+02  0.000E+00  0.000E+00  0.000E+00  1.02970E+03  2.283E+00  5.528E+01  5.591E-09  1.761E+00
   1   13    6     8     1    1.7801E+02  2.6533E-11   1.7801E+02  0.000E+00  0.000E+00  0.000E+00  1.02487E+03  2.995E+00  4.343E+01  4.426E-12  1.998E+00
   1   13    5     8     2    1.7801E+02  0.0000E+00   1.7801E+02  0.000E+00  0.000E+00  0.000E+00  1.01863E+03  3.004E+00  4.355E+01  0.000E+00  2.001E+00
   1   13    4     8     3    1.7801E+02  0.0000E+00   1.7801E+02  0.000E+00  0.000E+00  0.000E+00  1.01238E+03  3.004E+00  4.355E+01  0.000E+00  1.881E+00
   1   13    3     8     4    1.7801E+02  7.9042E-11   1.7801E+02  0.000E+00  0.000E+00  0.000E+00  1.00613E+03  3.001E+00  4.352E+01  4.434E-11  5.942E-01
   1   13    2     8     5    1.7801E+02 -4.6747E-01   1.7848E+02  0.000E+00  0.000E+00  0.000E+00  9.99880E+02  3.005E+00  4.357E+01  4.440E+00 -3.509E-02
   1   13    1     8     6    1.7848E+02 -1.3357E+00   1.7981E+02  0.000E+00  0.000E+00  0.000E+00  9.94886E+02  3.011E+00  4.366E+01  2.669E+00 -1.668E-01
   1    6    8     9     1    0.0000E+00  0.0000E+00   0.0000E+00  0.000E+00  0.000E+00  0.000E+00  1.07850E+03  0.000E+00  4.000E+00  0.000E+00  1.000E+00



 UBDSV3 SAVING "     NETRECHARGE" ON UNIT 100 AT TIME STEP     3, STRESS PERIOD   2
 UBDSV3 SAVING "    NETDISCHARGE" ON UNIT 101 AT TIME STEP     3, STRESS PERIOD   2
 UBDSV3 SAVING "           GW ET" ON UNIT  61 AT TIME STEP     3, STRESS PERIOD   2
 UBDSV3 SAVING "    UZF RECHARGE" ON UNIT  61 AT TIME STEP     3, STRESS PERIOD   2
 UBDSV3 SAVING " SURFACE LEAKAGE" ON UNIT  61 AT TIME STEP     3, STRESS PERIOD   2
 UBDSV3 SAVING "       HORT+DUNN" ON UNIT  61 AT TIME STEP     3, STRESS PERIOD   2
 UBDSV3 SAVING "  STORAGE CHANGE" ON UNIT  61 AT TIME STEP     3, STRESS PERIOD   2


UNSATURATED ZONE PACKAGE VOLUMETRIC BUDGET FOR  TIME STEP     3 STRESS PERIOD    2
  ------------------------------------------------------------------------------



     CUMULATIVE VOLUMES      L**3       RATES FOR THIS TIME STEP      L**3/T
     ------------------                 ------------------------

           IN:                                      IN:
           ---                                      ---
        INFILTRATION =     2449953.0000          INFILTRATION =           0.8475

          OUT:                                     OUT:
          ----                                     ----
              UZF ET =       75274.2445                UZF ET =           0.2864
        UZF RECHARGE =    10127643.3340          UZF RECHARGE =          30.0007

            IN - OUT =    -7752964.5785              IN - OUT =         -29.4396

          STORAGE:                                 STORAGE:
          --------                                 --------
      STORAGE CHANGE =    -7752336.7791        STORAGE CHANGE =         -29.4396

 PERCENT DISCREPANCY IS DIFFERENCE BETWEEN IN-OUT MINUS CHANGE IN STORAGE
 DIVIDED BY THE AVERAGE OF IN AND OUT TIMES 100

 PERCENT DISCREPANCY =          -0.00     PERCENT DISCREPANCY =          -0.00






1
  VOLUMETRIC BUDGET FOR ENTIRE MODEL AT END OF TIME STEP    3, STRESS PERIOD   2
  ------------------------------------------------------------------------------

     CUMULATIVE VOLUMES      L**3       RATES FOR THIS TIME STEP      L**3/T
     ------------------                 ------------------------

           IN:                                      IN:
           ---                                      ---
             STORAGE =           0.0000               STORAGE =           0.0000
       CONSTANT HEAD =           0.0000         CONSTANT HEAD =           0.0000
               WELLS =           0.0000                 WELLS =           0.0000
     HEAD DEP BOUNDS =     3092023.5000       HEAD DEP BOUNDS =           1.0692
      STREAM LEAKAGE =     4641799.5000        STREAM LEAKAGE =           3.9923
        UZF RECHARGE =    10127642.0000          UZF RECHARGE =          30.0007
               GW ET =           0.0000                 GW ET =           0.0000
     SURFACE LEAKAGE =           0.0000       SURFACE LEAKAGE =           0.0000

            TOTAL IN =    17861464.0000              TOTAL IN =          35.0622

          OUT:                                     OUT:
          ----                                     ----
             STORAGE =     8706494.0000               STORAGE =          32.9719
       CONSTANT HEAD =           0.0000         CONSTANT HEAD =           0.0000
               WELLS =           0.0000                 WELLS =           0.0000
     HEAD DEP BOUNDS =      807147.8750       HEAD DEP BOUNDS =           0.2807
      STREAM LEAKAGE =     6375125.5000        STREAM LEAKAGE =           1.8032
        UZF RECHARGE =           0.0000          UZF RECHARGE =           0.0000
               GW ET =     1971937.7500                 GW ET =       3.5888E-03
     SURFACE LEAKAGE =           0.0000       SURFACE LEAKAGE =           0.0000

           TOTAL OUT =    17860706.0000             TOTAL OUT =          35.0593

            IN - OUT =         758.0000              IN - OUT =       2.8954E-03

 PERCENT DISCREPANCY =           0.00     PERCENT DISCREPANCY =           0.01






         TIME SUMMARY AT END OF TIME STEP    3 IN STRESS PERIOD    2
                    SECONDS     MINUTES      HOURS       DAYS        YEARS
                    -----------------------------------------------------------
   TIME STEP LENGTH  87600.      1460.0      24.333      1.0139     2.77588E-03
 STRESS PERIOD TIME 2.62800E+05  4380.0      73.000      3.0417     8.32763E-03
         TOTAL TIME 2.89080E+06  48180.      803.00      33.458     9.16039E-02
1
 
 SOLVING FOR HEAD 
                                                   Max.-Head-Change                         Max.-Flux-Residual
  Residual-Control   Outer-Iter.   Inner-Iter.     Column Row Layer    Maximum-Head-Change  Column Row Layer    Maximum-Flux-Residual          L2-NORM 
          0                 1           2             5    3     1       0.1462311476E-01       2   13    1         0.6706003559E+00      0.2108287636E+01
          0                 2           2             5    3     1       0.6454871634E-02       5    3    1         0.1702338173E+00      0.6277697490E+00
          0                 3           2             5    3     1       0.2843221003E-02       5    3    1         0.7508374650E-01      0.2538382226E+00
          0                 4           2             5    3     1       0.1251386630E-02       5    3    1         0.3306268934E-01      0.1114945015E+00
          0                 5           2             6    3     1       0.5511051975E-03       5    3    1         0.1455027318E-01      0.4965144957E-01
          0                 6           2             6    3     1       0.2453374300E-03       6    3    1         0.6421529604E-02      0.2215822682E-01
          0                 7           1             6    3     1       0.1092133317E-03       6    3    1         0.2858666502E-02      0.9892547244E-02
          0                 8           1             6    3     1       0.4861541733E-04       6    3    1         0.1272542769E-02      0.4417126816E-02
          0                 9           1             6    3     1       0.2164017359E-04       6    3    1         0.5664588769E-03      0.1972482569E-02
          0                10           1             6    3     1       0.9632451203E-05       6    3    1         0.2521465473E-03      0.8808964875E-03

    ------------------------------------------------
       NWT REQUIRED           10 OUTER ITERATIONS 
       AND A TOTAL OF         16 INNER ITERATIONS.
    ------------------------------------------------

 OUTPUT CONTROL WAS SPECIFIED FOR A NONEXISTENT TIME STEP
 OR OUTPUT CONTROL DATA ARE NOT ENTERED IN ASCENDING ORDER
 OUTPUT CONTROL STRESS PERIOD    1   TIME STEP   15
 MODEL STRESS PERIOD    2   TIME STEP    4
 APPLYING THE SPECIFIED OUTPUT CONTROL TO THE CURRENT TIME STEP

 OUTPUT CONTROL FOR STRESS PERIOD    2   TIME STEP    4
    PRINT BUDGET
    PRINT HEAD FOR ALL LAYERS
    SAVE HEAD FOR ALL LAYERS
    SAVE BUDGET
 UBUDSV SAVING "         STORAGE" ON UNIT102 AT TIME STEP     4, STRESS PERIOD    2
 UBUDSV SAVING "   CONSTANT HEAD" ON UNIT102 AT TIME STEP     4, STRESS PERIOD    2
 UBUDSV SAVING "FLOW RIGHT FACE " ON UNIT102 AT TIME STEP     4, STRESS PERIOD    2
 UBUDSV SAVING "FLOW FRONT FACE " ON UNIT102 AT TIME STEP     4, STRESS PERIOD    2

  HEAD DEP BOUNDS   PERIOD    2   STEP     4
 BOUNDARY      1   LAYER   1   ROW    13   COL     1   RATE   -0.281139    
 BOUNDARY      2   LAYER   1   ROW    14   COL     9   RATE     1.06911    



 STREAM LISTING     PERIOD      2   STEP        4

 LAYER ROW COL. STREAM  RCH.  FLOW INTO     FLOW TO   FLOW OUT OF   OVRLND.     DIRECT     STREAM       STREAM     STREAM     STREAM   STREAMBED  STREAMBED
                SEG.NO.  NO.  STRM. RCH.    AQUIFER    STRM. RCH.    RUNOFF     PRECIP       ET          HEAD       DEPTH      WIDTH   CONDCTNC.   GRADIENT

   1    1    1     1     1    2.2000E+01  2.3088E-09   2.2000E+01  0.000E+00  0.000E+00  0.000E+00  1.09418E+03  1.132E+00  1.242E+01  5.588E-10  1.377E+00
   1    2    2     1     2    2.2000E+01  3.5866E-09   2.2000E+01  0.000E+00  0.000E+00  0.000E+00  1.08919E+03  1.131E+00  1.240E+01  8.683E-10  1.377E+00
   1    3    3     1     3    2.2000E+01  3.0759E-09   2.2000E+01  0.000E+00  0.000E+00  0.000E+00  1.08355E+03  1.131E+00  1.241E+01  7.446E-10  1.377E+00
   1    3    4     1     4    2.2000E+01  2.8459E-09   2.2000E+01  0.000E+00  0.000E+00  0.000E+00  1.07854E+03  1.131E+00  1.241E+01  6.889E-10  1.377E+00
   1    4    5     2     1    2.0000E+01  3.1600E-01   1.9684E+01  0.000E+00  0.000E+00  0.000E+00  1.07299E+03  1.051E+00  1.200E+01  7.800E-02  1.350E+00
   1    5    6     2     2    1.9684E+01  2.4254E-01   1.9441E+01  0.000E+00  0.000E+00  0.000E+00  1.06755E+03  1.042E+00  1.200E+01  6.000E-02  1.347E+00
   1    6    6     2     3    1.9441E+01  2.4207E-01   1.9199E+01  0.000E+00  0.000E+00  0.000E+00  1.06283E+03  1.035E+00  1.200E+01  6.000E-02  1.345E+00
   1    7    6     2     4    1.9199E+01  2.4161E-01   1.8958E+01  0.000E+00  0.000E+00  0.000E+00  1.05810E+03  1.027E+00  1.200E+01  6.000E-02  1.342E+00
   1    8    6     2     5    1.8958E+01  2.4114E-01   1.8717E+01  0.000E+00  0.000E+00  0.000E+00  1.05338E+03  1.019E+00  1.200E+01  6.000E-02  1.340E+00
   1    3    5     3     1    2.0000E+00  2.8252E-01   1.7175E+00  0.000E+00  0.000E+00  0.000E+00  1.07555E+03  1.909E+00  9.636E+00  7.227E-02  1.955E+00
   1    3    6     3     2    1.7175E+00  2.4905E-01   1.4684E+00  0.000E+00  0.000E+00  0.000E+00  1.07264E+03  1.727E+00  8.909E+00  6.682E-02  1.864E+00
   1    3    7     3     3    1.4684E+00  1.9718E-01   1.2712E+00  0.000E+00  0.000E+00  0.000E+00  1.06987E+03  1.555E+00  8.218E+00  5.547E-02  1.777E+00
   1    4    8     3     4    1.2712E+00  2.2567E-01   1.0456E+00  0.000E+00  0.000E+00  0.000E+00  1.06682E+03  1.364E+00  7.455E+00  6.709E-02  1.682E+00
   1    5    8     3     5    1.0456E+00  1.5790E-01   8.8768E-01  0.000E+00  0.000E+00  0.000E+00  1.06362E+03  1.164E+00  6.655E+00  4.991E-02  1.582E+00
   1    6    8     3     6    8.8768E-01  5.5980E-02   8.3170E-01  0.000E+00  0.000E+00  0.000E+00  1.06158E+03  1.036E+00  6.145E+00  1.844E-02  1.518E+00
   1    5   10     4     1    1.0000E+01  9.0919E-02   9.9091E+00  0.000E+00  0.000E+00  0.000E+00  1.07836E+03  6.368E-01  1.000E+01  2.500E-02  1.212E+00
   1    5    9     4     2    9.9091E+00  1.8158E-01   9.7275E+00  0.000E+00  0.000E+00  0.000E+00  1.07154E+03  6.315E-01  1.000E+01  5.000E-02  1.211E+00
   1    6    8     4     3    9.7275E+00  1.2689E-01   9.6006E+00  0.000E+00  0.000E+00  0.000E+00  1.06381E+03  6.256E-01  1.000E+01  3.500E-02  1.209E+00
   1    6    8     5     1    1.0432E+01  2.2686E-09   1.0432E+01  0.000E+00  0.000E+00  0.000E+00  1.05868E+03  6.790E-01  1.542E+01  6.166E-10  1.226E+00
   1    7    7     5     2    1.0432E+01  2.8306E-09   1.0432E+01  0.000E+00  0.000E+00  0.000E+00  1.05418E+03  6.784E-01  1.539E+01  7.695E-10  1.226E+00
   1    8    7     5     3    1.0432E+01  1.9868E-09   1.0432E+01  0.000E+00  0.000E+00  0.000E+00  1.04993E+03  6.794E-01  1.543E+01  5.400E-10  1.226E+00
   1    8    6     5     4    1.0432E+01  1.4217E-09   1.0432E+01  0.000E+00  0.000E+00  0.000E+00  1.04693E+03  6.800E-01  1.545E+01  3.863E-10  1.227E+00
   1    9    6     6     1    2.9149E+01  2.6012E-01   2.8889E+01  0.000E+00  0.000E+00  0.000E+00  1.04406E+03  1.335E+00  1.200E+01  6.000E-02  1.445E+00
   1   10    7     6     2    2.8889E+01  2.5969E-01   2.8629E+01  0.000E+00  0.000E+00  0.000E+00  1.03951E+03  1.328E+00  1.200E+01  6.000E-02  1.443E+00
   1   11    7     6     3    2.8629E+01  2.5925E-01   2.8370E+01  0.000E+00  0.000E+00  0.000E+00  1.03496E+03  1.321E+00  1.200E+01  6.000E-02  1.440E+00
   1   12    7     6     4    2.8370E+01  2.5882E-01   2.8111E+01  0.000E+00  0.000E+00  0.000E+00  1.03040E+03  1.314E+00  1.200E+01  6.000E-02  1.438E+00
   1   13    7     6     5    2.8111E+01  1.0341E-01   2.8008E+01  0.000E+00  0.000E+00  0.000E+00  1.02722E+03  1.309E+00  1.200E+01  2.400E-02  1.436E+00
   1   14    9     7     1    1.5000E+02  2.9539E-08   1.5000E+02  0.000E+00  0.000E+00  0.000E+00  1.03986E+03  2.283E+00  5.528E+01  5.591E-09  1.761E+00
   1   13    8     7     2    1.5000E+02  3.2486E-14   1.5000E+02  0.000E+00  0.000E+00  0.000E+00  1.03478E+03  2.283E+00  5.527E+01  6.150E-15  1.761E+00
   1   13    7     7     3    1.5000E+02  2.9539E-08   1.5000E+02  0.000E+00  0.000E+00  0.000E+00  1.02970E+03  2.283E+00  5.528E+01  5.591E-09  1.761E+00
   1   13    6     8     1    1.7801E+02  2.6533E-11   1.7801E+02  0.000E+00  0.000E+00  0.000E+00  1.02487E+03  2.995E+00  4.343E+01  4.426E-12  1.998E+00
   1   13    5     8     2    1.7801E+02  0.0000E+00   1.7801E+02  0.000E+00  0.000E+00  0.000E+00  1.01863E+03  3.004E+00  4.355E+01  0.000E+00  2.001E+00
   1   13    4     8     3    1.7801E+02  2.4927E-10   1.7801E+02  0.000E+00  0.000E+00  0.000E+00  1.01237E+03  2.996E+00  4.344E+01  4.426E-11  1.877E+00
   1   13    3     8     4    1.7801E+02  7.8648E-11   1.7801E+02  0.000E+00  0.000E+00  0.000E+00  1.00613E+03  3.001E+00  4.352E+01  4.434E-11  5.912E-01
   1   13    2     8     5    1.7801E+02 -5.2928E-01   1.7854E+02  0.000E+00  0.000E+00  0.000E+00  9.99880E+02  3.005E+00  4.358E+01  4.441E+00 -3.973E-02
   1   13    1     8     6    1.7854E+02 -1.3672E+00   1.7990E+02  0.000E+00  0.000E+00  0.000E+00  9.94886E+02  3.011E+00  4.366E+01  2.670E+00 -1.707E-01
   1    6    8     9     1    0.0000E+00  0.0000E+00   0.0000E+00  0.000E+00  0.000E+00  0.000E+00  1.07850E+03  0.000E+00  4.000E+00  0.000E+00  1.000E+00



 UBDSV3 SAVING "     NETRECHARGE" ON UNIT 100 AT TIME STEP     4, STRESS PERIOD   2
 UBDSV3 SAVING "    NETDISCHARGE" ON UNIT 101 AT TIME STEP     4, STRESS PERIOD   2
 UBDSV3 SAVING "           GW ET" ON UNIT  61 AT TIME STEP     4, STRESS PERIOD   2
 UBDSV3 SAVING "    UZF RECHARGE" ON UNIT  61 AT TIME STEP     4, STRESS PERIOD   2
 UBDSV3 SAVING " SURFACE LEAKAGE" ON UNIT  61 AT TIME STEP     4, STRESS PERIOD   2
 UBDSV3 SAVING "       HORT+DUNN" ON UNIT  61 AT TIME STEP     4, STRESS PERIOD   2
 UBDSV3 SAVING "  STORAGE CHANGE" ON UNIT  61 AT TIME STEP     4, STRESS PERIOD   2


UNSATURATED ZONE PACKAGE VOLUMETRIC BUDGET FOR  TIME STEP     4 STRESS PERIOD    2
  ------------------------------------------------------------------------------



     CUMULATIVE VOLUMES      L**3       RATES FOR THIS TIME STEP      L**3/T
     ------------------                 ------------------------

           IN:                                      IN:
           ---                                      ---
        INFILTRATION =     2524194.0000          INFILTRATION =           0.8475

          OUT:                                     OUT:
          ----                                     ----
              UZF ET =      100362.2200                UZF ET =           0.2864
        UZF RECHARGE =    12750417.2793          UZF RECHARGE =          29.9403

            IN - OUT =   -10326585.4993              IN - OUT =         -29.3792

          STORAGE:                                 STORAGE:
          --------                                 --------
      STORAGE CHANGE =   -10325956.1608        STORAGE CHANGE =         -29.3792

 PERCENT DISCREPANCY IS DIFFERENCE BETWEEN IN-OUT MINUS CHANGE IN STORAGE
 DIVIDED BY THE AVERAGE OF IN AND OUT TIMES 100

 PERCENT DISCREPANCY =          -0.00     PERCENT DISCREPANCY =          -0.00






1
              HEAD IN LAYER   1 AT END OF TIME STEP     4 IN STRESS PERIOD    2
  -----------------------------------------------------------------------------

           1       2       3       4       5       6       7       8       9      10
 ...................................................................................
   1  1011.40 1011.27 6999.00 6999.00 6999.00 6999.00 6999.00 6999.00 6999.00 6999.00
   2  1011.51 1010.91 1010.84 6999.00 6999.00 1011.83 1011.89 1011.90 6999.00 6999.00
   3  6999.00 1010.93 1010.75 1010.70 1010.84 1011.02 1011.19 1011.40 6999.00 6999.00
   4  1011.54 1011.03 1010.73 1010.63 1010.66 1010.68 1010.87 1011.21 1011.67 6999.00
   5  1011.48 1010.94 1010.65 1010.53 1010.55 1010.64 1010.76 1011.04 1011.72 1012.43
   6  1011.37 1010.80 1010.53 1010.41 1010.43 1010.53 1010.65 1010.89 1011.36 1012.35
   7  1011.25 1010.56 1010.32 1010.22 1010.26 1010.37 1010.49 1010.69 1011.16 6999.00
   8  6999.00 1010.12 1010.01 1009.97 1010.03 1010.18 1010.29 1010.61 1011.18 6999.00
   9  6999.00 1009.45 1009.51 1009.60 1009.73 1009.99 1010.15 1010.50 1011.27 6999.00
  10  6999.00 1008.47 1008.76 1009.08 1009.35 1009.71 1010.11 1010.54 1011.46 1012.26
  11  6999.00 1006.74 1007.46 1008.37 1008.90 1009.47 1010.08 1010.71 1011.83 6999.00
  12   999.56 1003.51 1005.91 1007.40 1008.40 1009.29 1010.14 1011.26 1013.03 6999.00
  13   995.40 1000.00 1004.35 1006.74 1008.11 1009.26 1010.50 1012.07 1014.69 6999.00
  14  6999.00 1003.20 1004.97 1006.85 1008.30 1009.61 1011.23 1013.78 1016.87 6999.00
  15  6999.00 6999.00 1006.84 1007.82 1008.88 1009.66 6999.00 6999.00 6999.00 6999.00

 HEAD WILL BE SAVED ON UNIT   62 AT END OF TIME STEP    4, STRESS PERIOD    2
1
  VOLUMETRIC BUDGET FOR ENTIRE MODEL AT END OF TIME STEP    4, STRESS PERIOD   2
  ------------------------------------------------------------------------------

     CUMULATIVE VOLUMES      L**3       RATES FOR THIS TIME STEP      L**3/T
     ------------------                 ------------------------

           IN:                                      IN:
           ---                                      ---
             STORAGE =           0.0000               STORAGE =           0.0000
       CONSTANT HEAD =           0.0000         CONSTANT HEAD =           0.0000
               WELLS =           0.0000                 WELLS =           0.0000
     HEAD DEP BOUNDS =     3185677.2500       HEAD DEP BOUNDS =           1.0691
      STREAM LEAKAGE =     4991527.5000        STREAM LEAKAGE =           3.9923
        UZF RECHARGE =    12750416.0000          UZF RECHARGE =          29.9403
               GW ET =           0.0000                 GW ET =           0.0000
     SURFACE LEAKAGE =           0.0000       SURFACE LEAKAGE =           0.0000

            TOTAL IN =    20927620.0000              TOTAL IN =          35.0018

          OUT:                                     OUT:
          ----                                     ----
             STORAGE =    11581318.0000               STORAGE =          32.8176
       CONSTANT HEAD =           0.0000         CONSTANT HEAD =           0.0000
               WELLS =           0.0000                 WELLS =           0.0000
     HEAD DEP BOUNDS =      831775.6875       HEAD DEP BOUNDS =           0.2811
      STREAM LEAKAGE =     6541261.5000        STREAM LEAKAGE =           1.8965
        UZF RECHARGE =           0.0000          UZF RECHARGE =           0.0000
               GW ET =     1972253.7500                 GW ET =       3.6076E-03
     SURFACE LEAKAGE =           0.0000       SURFACE LEAKAGE =           0.0000

           TOTAL OUT =    20926610.0000             TOTAL OUT =          34.9989

            IN - OUT =        1010.0000              IN - OUT =       2.8763E-03

 PERCENT DISCREPANCY =           0.00     PERCENT DISCREPANCY =           0.01






         TIME SUMMARY AT END OF TIME STEP    4 IN STRESS PERIOD    2
                    SECONDS     MINUTES      HOURS       DAYS        YEARS
                    -----------------------------------------------------------
   TIME STEP LENGTH  87600.      1460.0      24.333      1.0139     2.77588E-03
 STRESS PERIOD TIME 3.50400E+05  5840.0      97.333      4.0556     1.11035E-02
         TOTAL TIME 2.97840E+06  49640.      827.33      34.472     9.43798E-02
1
 
 SOLVING FOR HEAD 
                                                   Max.-Head-Change                         Max.-Flux-Residual
  Residual-Control   Outer-Iter.   Inner-Iter.     Column Row Layer    Maximum-Head-Change  Column Row Layer    Maximum-Flux-Residual          L2-NORM 
          0                 1           2             5    3     1       0.1429838126E-01       2   13    1         0.6047736393E+00      0.2074380287E+01
          0                 2           2             5    3     1       0.6312211411E-02       5    3    1         0.1664586211E+00      0.6221855012E+00
          0                 3           2             5    3     1       0.2780577726E-02       5    3    1         0.7342559232E-01      0.2521318572E+00
          0                 4           2             6    3     1       0.1224798572E-02       5    3    1         0.3233462296E-01      0.1107872425E+00
          0                 5           2             6    3     1       0.5452691090E-03       6    3    1         0.1427166243E-01      0.4934255747E-01
          0                 6           2             6    3     1       0.2427336978E-03       6    3    1         0.6353500054E-02      0.2202241489E-01
          0                 7           1             6    3     1       0.1080517888E-03       6    3    1         0.2828315752E-02      0.9832779255E-02
          0                 8           1             6    3     1       0.4809730105E-04       6    3    1         0.1259003314E-02      0.4390818831E-02
          0                 9           1             6    3     1       0.2140909000E-04       6    3    1         0.5604196054E-03      0.1960900000E-02
          0                10           1             6    3     1       0.9529398075E-05       6    3    1         0.2494530473E-03      0.8757962852E-03

    ------------------------------------------------
       NWT REQUIRED           10 OUTER ITERATIONS 
       AND A TOTAL OF         16 INNER ITERATIONS.
    ------------------------------------------------

 OUTPUT CONTROL WAS SPECIFIED FOR A NONEXISTENT TIME STEP
 OR OUTPUT CONTROL DATA ARE NOT ENTERED IN ASCENDING ORDER
 OUTPUT CONTROL STRESS PERIOD    2   TIME STEP    1
 MODEL STRESS PERIOD    2   TIME STEP    5
 APPLYING THE SPECIFIED OUTPUT CONTROL TO THE CURRENT TIME STEP

 OUTPUT CONTROL FOR STRESS PERIOD    2   TIME STEP    5
    PRINT BUDGET
    SAVE BUDGET
 UBUDSV SAVING "         STORAGE" ON UNIT102 AT TIME STEP     5, STRESS PERIOD    2
 UBUDSV SAVING "   CONSTANT HEAD" ON UNIT102 AT TIME STEP     5, STRESS PERIOD    2
 UBUDSV SAVING "FLOW RIGHT FACE " ON UNIT102 AT TIME STEP     5, STRESS PERIOD    2
 UBUDSV SAVING "FLOW FRONT FACE " ON UNIT102 AT TIME STEP     5, STRESS PERIOD    2

  HEAD DEP BOUNDS   PERIOD    2   STEP     5
 BOUNDARY      1   LAYER   1   ROW    13   COL     1   RATE   -0.281577    
 BOUNDARY      2   LAYER   1   ROW    14   COL     9   RATE     1.06897    



 STREAM LISTING     PERIOD      2   STEP        5

 LAYER ROW COL. STREAM  RCH.  FLOW INTO     FLOW TO   FLOW OUT OF   OVRLND.     DIRECT     STREAM       STREAM     STREAM     STREAM   STREAMBED  STREAMBED
                SEG.NO.  NO.  STRM. RCH.    AQUIFER    STRM. RCH.    RUNOFF     PRECIP       ET          HEAD       DEPTH      WIDTH   CONDCTNC.   GRADIENT

   1    1    1     1     1    2.2000E+01  2.3088E-09   2.2000E+01  0.000E+00  0.000E+00  0.000E+00  1.09418E+03  1.132E+00  1.242E+01  5.588E-10  1.377E+00
   1    2    2     1     2    2.2000E+01  3.5866E-09   2.2000E+01  0.000E+00  0.000E+00  0.000E+00  1.08919E+03  1.131E+00  1.240E+01  8.683E-10  1.377E+00
   1    3    3     1     3    2.2000E+01  3.0759E-09   2.2000E+01  0.000E+00  0.000E+00  0.000E+00  1.08355E+03  1.131E+00  1.241E+01  7.446E-10  1.377E+00
   1    3    4     1     4    2.2000E+01  2.8459E-09   2.2000E+01  0.000E+00  0.000E+00  0.000E+00  1.07854E+03  1.131E+00  1.241E+01  6.889E-10  1.377E+00
   1    4    5     2     1    2.0000E+01  3.1600E-01   1.9684E+01  0.000E+00  0.000E+00  0.000E+00  1.07299E+03  1.051E+00  1.200E+01  7.800E-02  1.350E+00
   1    5    6     2     2    1.9684E+01  2.4254E-01   1.9441E+01  0.000E+00  0.000E+00  0.000E+00  1.06755E+03  1.042E+00  1.200E+01  6.000E-02  1.347E+00
   1    6    6     2     3    1.9441E+01  2.4207E-01   1.9199E+01  0.000E+00  0.000E+00  0.000E+00  1.06283E+03  1.035E+00  1.200E+01  6.000E-02  1.345E+00
   1    7    6     2     4    1.9199E+01  2.4161E-01   1.8958E+01  0.000E+00  0.000E+00  0.000E+00  1.05810E+03  1.027E+00  1.200E+01  6.000E-02  1.342E+00
   1    8    6     2     5    1.8958E+01  2.4114E-01   1.8717E+01  0.000E+00  0.000E+00  0.000E+00  1.05338E+03  1.019E+00  1.200E+01  6.000E-02  1.340E+00
   1    3    5     3     1    2.0000E+00  2.8252E-01   1.7175E+00  0.000E+00  0.000E+00  0.000E+00  1.07555E+03  1.909E+00  9.636E+00  7.227E-02  1.955E+00
   1    3    6     3     2    1.7175E+00  2.4905E-01   1.4684E+00  0.000E+00  0.000E+00  0.000E+00  1.07264E+03  1.727E+00  8.909E+00  6.682E-02  1.864E+00
   1    3    7     3     3    1.4684E+00  1.9718E-01   1.2712E+00  0.000E+00  0.000E+00  0.000E+00  1.06987E+03  1.555E+00  8.218E+00  5.547E-02  1.777E+00
   1    4    8     3     4    1.2712E+00  2.2567E-01   1.0456E+00  0.000E+00  0.000E+00  0.000E+00  1.06682E+03  1.364E+00  7.455E+00  6.709E-02  1.682E+00
   1    5    8     3     5    1.0456E+00  1.5790E-01   8.8768E-01  0.000E+00  0.000E+00  0.000E+00  1.06362E+03  1.164E+00  6.655E+00  4.991E-02  1.582E+00
   1    6    8     3     6    8.8768E-01  5.5980E-02   8.3170E-01  0.000E+00  0.000E+00  0.000E+00  1.06158E+03  1.036E+00  6.145E+00  1.844E-02  1.518E+00
   1    5   10     4     1    1.0000E+01  9.0919E-02   9.9091E+00  0.000E+00  0.000E+00  0.000E+00  1.07836E+03  6.368E-01  1.000E+01  2.500E-02  1.212E+00
   1    5    9     4     2    9.9091E+00  1.8158E-01   9.7275E+00  0.000E+00  0.000E+00  0.000E+00  1.07154E+03  6.315E-01  1.000E+01  5.000E-02  1.211E+00
   1    6    8     4     3    9.7275E+00  1.2689E-01   9.6006E+00  0.000E+00  0.000E+00  0.000E+00  1.06381E+03  6.256E-01  1.000E+01  3.500E-02  1.209E+00
   1    6    8     5     1    1.0432E+01  2.2686E-09   1.0432E+01  0.000E+00  0.000E+00  0.000E+00  1.05868E+03  6.790E-01  1.542E+01  6.166E-10  1.226E+00
   1    7    7     5     2    1.0432E+01  2.8306E-09   1.0432E+01  0.000E+00  0.000E+00  0.000E+00  1.05418E+03  6.784E-01  1.539E+01  7.695E-10  1.226E+00
   1    8    7     5     3    1.0432E+01  1.9868E-09   1.0432E+01  0.000E+00  0.000E+00  0.000E+00  1.04993E+03  6.794E-01  1.543E+01  5.400E-10  1.226E+00
   1    8    6     5     4    1.0432E+01  1.4217E-09   1.0432E+01  0.000E+00  0.000E+00  0.000E+00  1.04693E+03  6.800E-01  1.545E+01  3.863E-10  1.227E+00
   1    9    6     6     1    2.9149E+01  2.6012E-01   2.8889E+01  0.000E+00  0.000E+00  0.000E+00  1.04406E+03  1.335E+00  1.200E+01  6.000E-02  1.445E+00
   1   10    7     6     2    2.8889E+01  2.5969E-01   2.8629E+01  0.000E+00  0.000E+00  0.000E+00  1.03951E+03  1.328E+00  1.200E+01  6.000E-02  1.443E+00
   1   11    7     6     3    2.8629E+01  2.5925E-01   2.8370E+01  0.000E+00  0.000E+00  0.000E+00  1.03496E+03  1.321E+00  1.200E+01  6.000E-02  1.440E+00
   1   12    7     6     4    2.8370E+01  2.5882E-01   2.8111E+01  0.000E+00  0.000E+00  0.000E+00  1.03040E+03  1.314E+00  1.200E+01  6.000E-02  1.438E+00
   1   13    7     6     5    2.8111E+01  1.0341E-01   2.8008E+01  0.000E+00  0.000E+00  0.000E+00  1.02722E+03  1.309E+00  1.200E+01  2.400E-02  1.436E+00
   1   14    9     7     1    1.5000E+02  2.9539E-08   1.5000E+02  0.000E+00  0.000E+00  0.000E+00  1.03986E+03  2.283E+00  5.528E+01  5.591E-09  1.761E+00
   1   13    8     7     2    1.5000E+02  3.2486E-14   1.5000E+02  0.000E+00  0.000E+00  0.000E+00  1.03478E+03  2.283E+00  5.527E+01  6.150E-15  1.761E+00
   1   13    7     7     3    1.5000E+02  2.9539E-08   1.5000E+02  0.000E+00  0.000E+00  0.000E+00  1.02970E+03  2.283E+00  5.528E+01  5.591E-09  1.761E+00
   1   13    6     8     1    1.7801E+02  2.6533E-11   1.7801E+02  0.000E+00  0.000E+00  0.000E+00  1.02487E+03  2.995E+00  4.343E+01  4.426E-12  1.998E+00
   1   13    5     8     2    1.7801E+02  0.0000E+00   1.7801E+02  0.000E+00  0.000E+00  0.000E+00  1.01863E+03  3.004E+00  4.355E+01  0.000E+00  2.001E+00
   1   13    4     8     3    1.7801E+02  0.0000E+00   1.7801E+02  0.000E+00  0.000E+00  0.000E+00  1.01238E+03  3.004E+00  4.355E+01  0.000E+00  1.878E+00
   1   13    3     8     4    1.7801E+02  7.8257E-08   1.7801E+02  0.000E+00  0.000E+00  0.000E+00  1.00613E+03  3.001E+00  4.352E+01  4.434E-08  5.882E-01
   1   13    2     8     5    1.7801E+02 -5.8511E-01   1.7859E+02  0.000E+00  0.000E+00  0.000E+00  9.99880E+02  3.005E+00  4.358E+01  4.441E+00 -4.392E-02
   1   13    1     8     6    1.7859E+02 -1.3970E+00   1.7999E+02  0.000E+00  0.000E+00  0.000E+00  9.94887E+02  3.012E+00  4.367E+01  2.670E+00 -1.744E-01
   1    6    8     9     1    0.0000E+00  0.0000E+00   0.0000E+00  0.000E+00  0.000E+00  0.000E+00  1.07850E+03  0.000E+00  4.000E+00  0.000E+00  1.000E+00



 UBDSV3 SAVING "     NETRECHARGE" ON UNIT 100 AT TIME STEP     5, STRESS PERIOD   2
 UBDSV3 SAVING "    NETDISCHARGE" ON UNIT 101 AT TIME STEP     5, STRESS PERIOD   2
 UBDSV3 SAVING "           GW ET" ON UNIT  61 AT TIME STEP     5, STRESS PERIOD   2
 UBDSV3 SAVING "    UZF RECHARGE" ON UNIT  61 AT TIME STEP     5, STRESS PERIOD   2
 UBDSV3 SAVING " SURFACE LEAKAGE" ON UNIT  61 AT TIME STEP     5, STRESS PERIOD   2
 UBDSV3 SAVING "       HORT+DUNN" ON UNIT  61 AT TIME STEP     5, STRESS PERIOD   2
 UBDSV3 SAVING "  STORAGE CHANGE" ON UNIT  61 AT TIME STEP     5, STRESS PERIOD   2


UNSATURATED ZONE PACKAGE VOLUMETRIC BUDGET FOR  TIME STEP     5 STRESS PERIOD    2
  ------------------------------------------------------------------------------



     CUMULATIVE VOLUMES      L**3       RATES FOR THIS TIME STEP      L**3/T
     ------------------                 ------------------------

           IN:                                      IN:
           ---                                      ---
        INFILTRATION =     2598435.0000          INFILTRATION =           0.8475

          OUT:                                     OUT:
          ----                                     ----
              UZF ET =      125448.6517                UZF ET =           0.2864
        UZF RECHARGE =    15368180.1895          UZF RECHARGE =          29.8831

            IN - OUT =   -12895193.8412              IN - OUT =         -29.3220

          STORAGE:                                 STORAGE:
          --------                                 --------
      STORAGE CHANGE =   -12894563.0501        STORAGE CHANGE =         -29.3220

 PERCENT DISCREPANCY IS DIFFERENCE BETWEEN IN-OUT MINUS CHANGE IN STORAGE
 DIVIDED BY THE AVERAGE OF IN AND OUT TIMES 100

 PERCENT DISCREPANCY =          -0.00     PERCENT DISCREPANCY =          -0.00






1
  VOLUMETRIC BUDGET FOR ENTIRE MODEL AT END OF TIME STEP    5, STRESS PERIOD   2
  ------------------------------------------------------------------------------

     CUMULATIVE VOLUMES      L**3       RATES FOR THIS TIME STEP      L**3/T
     ------------------                 ------------------------

           IN:                                      IN:
           ---                                      ---
             STORAGE =           0.0000               STORAGE =           0.0000
       CONSTANT HEAD =           0.0000         CONSTANT HEAD =           0.0000
               WELLS =           0.0000                 WELLS =           0.0000
     HEAD DEP BOUNDS =     3279319.5000       HEAD DEP BOUNDS =           1.0690
      STREAM LEAKAGE =     5341255.5000        STREAM LEAKAGE =           3.9923
        UZF RECHARGE =    15368178.0000          UZF RECHARGE =          29.8831
               GW ET =           0.0000                 GW ET =           0.0000
     SURFACE LEAKAGE =           0.0000       SURFACE LEAKAGE =           0.0000

            TOTAL IN =    23988752.0000              TOTAL IN =          34.9444

          OUT:                                     OUT:
          ----                                     ----
             STORAGE =    14443582.0000               STORAGE =          32.6742
       CONSTANT HEAD =           0.0000         CONSTANT HEAD =           0.0000
               WELLS =           0.0000                 WELLS =           0.0000
     HEAD DEP BOUNDS =      856441.8125       HEAD DEP BOUNDS =           0.2816
      STREAM LEAKAGE =     6714896.0000        STREAM LEAKAGE =           1.9821
        UZF RECHARGE =           0.0000          UZF RECHARGE =           0.0000
               GW ET =     1972571.3750                 GW ET =       3.6252E-03
     SURFACE LEAKAGE =           0.0000       SURFACE LEAKAGE =           0.0000

           TOTAL OUT =    23987492.0000             TOTAL OUT =          34.9416

            IN - OUT =        1260.0000              IN - OUT =       2.8610E-03

 PERCENT DISCREPANCY =           0.01     PERCENT DISCREPANCY =           0.01






         TIME SUMMARY AT END OF TIME STEP    5 IN STRESS PERIOD    2
                    SECONDS     MINUTES      HOURS       DAYS        YEARS
                    -----------------------------------------------------------
   TIME STEP LENGTH  87600.      1460.0      24.333      1.0139     2.77588E-03
 STRESS PERIOD TIME 4.38000E+05  7300.0      121.67      5.0694     1.38794E-02
         TOTAL TIME 3.06600E+06  51100.      851.67      35.486     9.71557E-02
1
 
 SOLVING FOR HEAD 
                                                   Max.-Head-Change                         Max.-Flux-Residual
  Residual-Control   Outer-Iter.   Inner-Iter.     Column Row Layer    Maximum-Head-Change  Column Row Layer    Maximum-Flux-Residual          L2-NORM 
          0                 1           2             5    3     1       0.1398392054E-01       2   13    1         0.5460628421E+00      0.2045369668E+01
          0                 2           2             5    3     1       0.6174072662E-02       5    3    1         0.1628029564E+00      0.6170894713E+00
          0                 3           2             6    3     1       0.2722046834E-02       5    3    1         0.7182000357E-01      0.2504935002E+00
          0                 4           2             6    3     1       0.1211950114E-02       6    3    1         0.3171909449E-01      0.1101007484E+00
          0                 5           2             6    3     1       0.5395373817E-03       6    3    1         0.1412189789E-01      0.4904222643E-01
          0                 6           2             6    3     1       0.2401767715E-03       6    3    1         0.6286688152E-02      0.2189031495E-01
          0                 7           1             6    3     1       0.1069112350E-03       6    3    1         0.2798511119E-02      0.9774631868E-02
          0                 8           1             6    3     1       0.4758859470E-04       6    3    1         0.1245708752E-02      0.4365216596E-02
          0                 9           1             6    3     1       0.2118222403E-04       6    3    1         0.5544901254E-03      0.1949626135E-02
          0                10           1             6    3     1       0.9428235286E-05       6    3    1         0.2468087562E-03      0.8708310428E-03

    ------------------------------------------------
       NWT REQUIRED           10 OUTER ITERATIONS 
       AND A TOTAL OF         16 INNER ITERATIONS.
    ------------------------------------------------

 OUTPUT CONTROL WAS SPECIFIED FOR A NONEXISTENT TIME STEP
 OR OUTPUT CONTROL DATA ARE NOT ENTERED IN ASCENDING ORDER
 OUTPUT CONTROL STRESS PERIOD    2   TIME STEP    5
 MODEL STRESS PERIOD    2   TIME STEP    6
 APPLYING THE SPECIFIED OUTPUT CONTROL TO THE CURRENT TIME STEP

 OUTPUT CONTROL FOR STRESS PERIOD    2   TIME STEP    6
    PRINT BUDGET
    SAVE BUDGET
 UBUDSV SAVING "         STORAGE" ON UNIT102 AT TIME STEP     6, STRESS PERIOD    2
 UBUDSV SAVING "   CONSTANT HEAD" ON UNIT102 AT TIME STEP     6, STRESS PERIOD    2
 UBUDSV SAVING "FLOW RIGHT FACE " ON UNIT102 AT TIME STEP     6, STRESS PERIOD    2
 UBUDSV SAVING "FLOW FRONT FACE " ON UNIT102 AT TIME STEP     6, STRESS PERIOD    2

  HEAD DEP BOUNDS   PERIOD    2   STEP     6
 BOUNDARY      1   LAYER   1   ROW    13   COL     1   RATE   -0.281990    
 BOUNDARY      2   LAYER   1   ROW    14   COL     9   RATE     1.06884    



 STREAM LISTING     PERIOD      2   STEP        6

 LAYER ROW COL. STREAM  RCH.  FLOW INTO     FLOW TO   FLOW OUT OF   OVRLND.     DIRECT     STREAM       STREAM     STREAM     STREAM   STREAMBED  STREAMBED
                SEG.NO.  NO.  STRM. RCH.    AQUIFER    STRM. RCH.    RUNOFF     PRECIP       ET          HEAD       DEPTH      WIDTH   CONDCTNC.   GRADIENT

   1    1    1     1     1    2.2000E+01  2.3088E-09   2.2000E+01  0.000E+00  0.000E+00  0.000E+00  1.09418E+03  1.132E+00  1.242E+01  5.588E-10  1.377E+00
   1    2    2     1     2    2.2000E+01  3.5866E-09   2.2000E+01  0.000E+00  0.000E+00  0.000E+00  1.08919E+03  1.131E+00  1.240E+01  8.683E-10  1.377E+00
   1    3    3     1     3    2.2000E+01  3.0759E-09   2.2000E+01  0.000E+00  0.000E+00  0.000E+00  1.08355E+03  1.131E+00  1.241E+01  7.446E-10  1.377E+00
   1    3    4     1     4    2.2000E+01  2.8459E-09   2.2000E+01  0.000E+00  0.000E+00  0.000E+00  1.07854E+03  1.131E+00  1.241E+01  6.889E-10  1.377E+00
   1    4    5     2     1    2.0000E+01  3.1600E-01   1.9684E+01  0.000E+00  0.000E+00  0.000E+00  1.07299E+03  1.051E+00  1.200E+01  7.800E-02  1.350E+00
   1    5    6     2     2    1.9684E+01  2.4254E-01   1.9441E+01  0.000E+00  0.000E+00  0.000E+00  1.06755E+03  1.042E+00  1.200E+01  6.000E-02  1.347E+00
   1    6    6     2     3    1.9441E+01  2.4207E-01   1.9199E+01  0.000E+00  0.000E+00  0.000E+00  1.06283E+03  1.035E+00  1.200E+01  6.000E-02  1.345E+00
   1    7    6     2     4    1.9199E+01  2.4161E-01   1.8958E+01  0.000E+00  0.000E+00  0.000E+00  1.05810E+03  1.027E+00  1.200E+01  6.000E-02  1.342E+00
   1    8    6     2     5    1.8958E+01  2.4114E-01   1.8717E+01  0.000E+00  0.000E+00  0.000E+00  1.05338E+03  1.019E+00  1.200E+01  6.000E-02  1.340E+00
   1    3    5     3     1    2.0000E+00  2.8252E-01   1.7175E+00  0.000E+00  0.000E+00  0.000E+00  1.07555E+03  1.909E+00  9.636E+00  7.227E-02  1.955E+00
   1    3    6     3     2    1.7175E+00  2.4905E-01   1.4684E+00  0.000E+00  0.000E+00  0.000E+00  1.07264E+03  1.727E+00  8.909E+00  6.682E-02  1.864E+00
   1    3    7     3     3    1.4684E+00  1.9718E-01   1.2712E+00  0.000E+00  0.000E+00  0.000E+00  1.06987E+03  1.555E+00  8.218E+00  5.547E-02  1.777E+00
   1    4    8     3     4    1.2712E+00  2.2567E-01   1.0456E+00  0.000E+00  0.000E+00  0.000E+00  1.06682E+03  1.364E+00  7.455E+00  6.709E-02  1.682E+00
   1    5    8     3     5    1.0456E+00  1.5790E-01   8.8768E-01  0.000E+00  0.000E+00  0.000E+00  1.06362E+03  1.164E+00  6.655E+00  4.991E-02  1.582E+00
   1    6    8     3     6    8.8768E-01  5.5980E-02   8.3170E-01  0.000E+00  0.000E+00  0.000E+00  1.06158E+03  1.036E+00  6.145E+00  1.844E-02  1.518E+00
   1    5   10     4     1    1.0000E+01  9.0919E-02   9.9091E+00  0.000E+00  0.000E+00  0.000E+00  1.07836E+03  6.368E-01  1.000E+01  2.500E-02  1.212E+00
   1    5    9     4     2    9.9091E+00  1.8158E-01   9.7275E+00  0.000E+00  0.000E+00  0.000E+00  1.07154E+03  6.315E-01  1.000E+01  5.000E-02  1.211E+00
   1    6    8     4     3    9.7275E+00  1.2689E-01   9.6006E+00  0.000E+00  0.000E+00  0.000E+00  1.06381E+03  6.256E-01  1.000E+01  3.500E-02  1.209E+00
   1    6    8     5     1    1.0432E+01  2.2686E-09   1.0432E+01  0.000E+00  0.000E+00  0.000E+00  1.05868E+03  6.790E-01  1.542E+01  6.166E-10  1.226E+00
   1    7    7     5     2    1.0432E+01  2.8306E-09   1.0432E+01  0.000E+00  0.000E+00  0.000E+00  1.05418E+03  6.784E-01  1.539E+01  7.695E-10  1.226E+00
   1    8    7     5     3    1.0432E+01  1.9868E-09   1.0432E+01  0.000E+00  0.000E+00  0.000E+00  1.04993E+03  6.794E-01  1.543E+01  5.400E-10  1.226E+00
   1    8    6     5     4    1.0432E+01  1.4217E-09   1.0432E+01  0.000E+00  0.000E+00  0.000E+00  1.04693E+03  6.800E-01  1.545E+01  3.863E-10  1.227E+00
   1    9    6     6     1    2.9149E+01  2.6012E-01   2.8889E+01  0.000E+00  0.000E+00  0.000E+00  1.04406E+03  1.335E+00  1.200E+01  6.000E-02  1.445E+00
   1   10    7     6     2    2.8889E+01  2.5969E-01   2.8629E+01  0.000E+00  0.000E+00  0.000E+00  1.03951E+03  1.328E+00  1.200E+01  6.000E-02  1.443E+00
   1   11    7     6     3    2.8629E+01  2.5925E-01   2.8370E+01  0.000E+00  0.000E+00  0.000E+00  1.03496E+03  1.321E+00  1.200E+01  6.000E-02  1.440E+00
   1   12    7     6     4    2.8370E+01  2.5882E-01   2.8111E+01  0.000E+00  0.000E+00  0.000E+00  1.03040E+03  1.314E+00  1.200E+01  6.000E-02  1.438E+00
   1   13    7     6     5    2.8111E+01  1.0341E-01   2.8008E+01  0.000E+00  0.000E+00  0.000E+00  1.02722E+03  1.309E+00  1.200E+01  2.400E-02  1.436E+00
   1   14    9     7     1    1.5000E+02  2.9539E-08   1.5000E+02  0.000E+00  0.000E+00  0.000E+00  1.03986E+03  2.283E+00  5.528E+01  5.591E-09  1.761E+00
   1   13    8     7     2    1.5000E+02  3.2486E-14   1.5000E+02  0.000E+00  0.000E+00  0.000E+00  1.03478E+03  2.283E+00  5.527E+01  6.150E-15  1.761E+00
   1   13    7     7     3    1.5000E+02  2.9539E-08   1.5000E+02  0.000E+00  0.000E+00  0.000E+00  1.02970E+03  2.283E+00  5.528E+01  5.591E-09  1.761E+00
   1   13    6     8     1    1.7801E+02  2.6533E-11   1.7801E+02  0.000E+00  0.000E+00  0.000E+00  1.02487E+03  2.995E+00  4.343E+01  4.426E-12  1.998E+00
   1   13    5     8     2    1.7801E+02  0.0000E+00   1.7801E+02  0.000E+00  0.000E+00  0.000E+00  1.01863E+03  3.004E+00  4.355E+01  0.000E+00  2.001E+00
   1   13    4     8     3    1.7801E+02  2.4893E-08   1.7801E+02  0.000E+00  0.000E+00  0.000E+00  1.01237E+03  2.996E+00  4.344E+01  4.426E-09  1.875E+00
   1   13    3     8     4    1.7801E+02  7.7871E-09   1.7801E+02  0.000E+00  0.000E+00  0.000E+00  1.00613E+03  3.001E+00  4.352E+01  4.434E-09  5.853E-01
   1   13    2     8     5    1.7801E+02 -6.3558E-01   1.7864E+02  0.000E+00  0.000E+00  0.000E+00  9.99881E+02  3.006E+00  4.358E+01  4.441E+00 -4.770E-02
   1   13    1     8     6    1.7864E+02 -1.4251E+00   1.8007E+02  0.000E+00  0.000E+00  0.000E+00  9.94887E+02  3.012E+00  4.368E+01  2.670E+00 -1.779E-01
   1    6    8     9     1    0.0000E+00  0.0000E+00   0.0000E+00  0.000E+00  0.000E+00  0.000E+00  1.07850E+03  0.000E+00  4.000E+00  0.000E+00  1.000E+00



 UBDSV3 SAVING "     NETRECHARGE" ON UNIT 100 AT TIME STEP     6, STRESS PERIOD   2
 UBDSV3 SAVING "    NETDISCHARGE" ON UNIT 101 AT TIME STEP     6, STRESS PERIOD   2
 UBDSV3 SAVING "           GW ET" ON UNIT  61 AT TIME STEP     6, STRESS PERIOD   2
 UBDSV3 SAVING "    UZF RECHARGE" ON UNIT  61 AT TIME STEP     6, STRESS PERIOD   2
 UBDSV3 SAVING " SURFACE LEAKAGE" ON UNIT  61 AT TIME STEP     6, STRESS PERIOD   2
 UBDSV3 SAVING "       HORT+DUNN" ON UNIT  61 AT TIME STEP     6, STRESS PERIOD   2
 UBDSV3 SAVING "  STORAGE CHANGE" ON UNIT  61 AT TIME STEP     6, STRESS PERIOD   2


UNSATURATED ZONE PACKAGE VOLUMETRIC BUDGET FOR  TIME STEP     6 STRESS PERIOD    2
  ------------------------------------------------------------------------------



     CUMULATIVE VOLUMES      L**3       RATES FOR THIS TIME STEP      L**3/T
     ------------------                 ------------------------

           IN:                                      IN:
           ---                                      ---
        INFILTRATION =     2672676.0000          INFILTRATION =           0.8475

          OUT:                                     OUT:
          ----                                     ----
              UZF ET =      150533.6341                UZF ET =           0.2864
        UZF RECHARGE =    17981184.9668          UZF RECHARGE =          29.8288

            IN - OUT =   -15459042.6008              IN - OUT =         -29.2677

          STORAGE:                                 STORAGE:
          --------                                 --------
      STORAGE CHANGE =   -15458410.4475        STORAGE CHANGE =         -29.2677

 PERCENT DISCREPANCY IS DIFFERENCE BETWEEN IN-OUT MINUS CHANGE IN STORAGE
 DIVIDED BY THE AVERAGE OF IN AND OUT TIMES 100

 PERCENT DISCREPANCY =          -0.00     PERCENT DISCREPANCY =          -0.00






1
  VOLUMETRIC BUDGET FOR ENTIRE MODEL AT END OF TIME STEP    6, STRESS PERIOD   2
  ------------------------------------------------------------------------------

     CUMULATIVE VOLUMES      L**3       RATES FOR THIS TIME STEP      L**3/T
     ------------------                 ------------------------

           IN:                                      IN:
           ---                                      ---
             STORAGE =           0.0000               STORAGE =           0.0000
       CONSTANT HEAD =           0.0000         CONSTANT HEAD =           0.0000
               WELLS =           0.0000                 WELLS =           0.0000
     HEAD DEP BOUNDS =     3372950.0000       HEAD DEP BOUNDS =           1.0688
      STREAM LEAKAGE =     5690983.5000        STREAM LEAKAGE =           3.9923
        UZF RECHARGE =    17981182.0000          UZF RECHARGE =          29.8288
               GW ET =           0.0000                 GW ET =           0.0000
     SURFACE LEAKAGE =           0.0000       SURFACE LEAKAGE =           0.0000

            TOTAL IN =    27045116.0000              TOTAL IN =          34.8900

          OUT:                                     OUT:
          ----                                     ----
             STORAGE =    17294156.0000               STORAGE =          32.5408
       CONSTANT HEAD =           0.0000         CONSTANT HEAD =           0.0000
               WELLS =           0.0000                 WELLS =           0.0000
     HEAD DEP BOUNDS =      881144.1250       HEAD DEP BOUNDS =           0.2820
      STREAM LEAKAGE =     6895414.0000        STREAM LEAKAGE =           2.0607
        UZF RECHARGE =           0.0000          UZF RECHARGE =           0.0000
               GW ET =     1972890.3750                 GW ET =       3.6418E-03
     SURFACE LEAKAGE =           0.0000       SURFACE LEAKAGE =           0.0000

           TOTAL OUT =    27043604.0000             TOTAL OUT =          34.8871

            IN - OUT =        1512.0000              IN - OUT =       2.8458E-03

 PERCENT DISCREPANCY =           0.01     PERCENT DISCREPANCY =           0.01






         TIME SUMMARY AT END OF TIME STEP    6 IN STRESS PERIOD    2
                    SECONDS     MINUTES      HOURS       DAYS        YEARS
                    -----------------------------------------------------------
   TIME STEP LENGTH  87600.      1460.0      24.333      1.0139     2.77588E-03
 STRESS PERIOD TIME 5.25600E+05  8760.0      146.00      6.0833     1.66553E-02
         TOTAL TIME 3.15360E+06  52560.      876.00      36.500     9.99316E-02
1
 
 SOLVING FOR HEAD 
                                                   Max.-Head-Change                         Max.-Flux-Residual
  Residual-Control   Outer-Iter.   Inner-Iter.     Column Row Layer    Maximum-Head-Change  Column Row Layer    Maximum-Flux-Residual          L2-NORM 
          0                 1           2             5    3     1       0.1367938638E-01       2   13    1         0.4936749813E+00      0.2020504872E+01
          0                 2           2             6    3     1       0.6048532960E-02       5    3    1         0.1592627773E+00      0.6124136610E+00
          0                 3           2             6    3     1       0.2693710127E-02       6    3    1         0.7048802300E-01      0.2489176139E+00
          0                 4           2             6    3     1       0.1199312945E-02       6    3    1         0.3138883509E-01      0.1094335946E+00
          0                 5           2             6    3     1       0.5339005283E-03       6    3    1         0.1397459896E-01      0.4874965648E-01
          0                 6           2             6    3     1       0.2376624504E-03       6    3    1         0.6220983504E-02      0.2176146066E-01
          0                 7           1             6    3     1       0.1057898105E-03       6    3    1         0.2769203722E-02      0.9717847397E-02
          0                 8           1             6    3     1       0.4708847466E-04       6    3    1         0.1232637429E-02      0.4340188919E-02
          0                 9           1             6    3     1       0.2095921151E-04       6    3    1         0.5486608435E-03      0.1938594010E-02
          0                10           1             6    3     1       0.9328800389E-05       6    3    1         0.2442094150E-03      0.8659672050E-03

    ------------------------------------------------
       NWT REQUIRED           10 OUTER ITERATIONS 
       AND A TOTAL OF         16 INNER ITERATIONS.
    ------------------------------------------------

 NO OUTPUT CONTROL FOR STRESS PERIOD    2   TIME STEP    7
 
 SOLVING FOR HEAD 
                                                   Max.-Head-Change                         Max.-Flux-Residual
  Residual-Control   Outer-Iter.   Inner-Iter.     Column Row Layer    Maximum-Head-Change  Column Row Layer    Maximum-Flux-Residual          L2-NORM 
          0                 1           2             6    3     1       0.1343213933E-01       2   13    1         0.4469082031E+00      0.1999152686E+01
          0                 2           2             6    3     1       0.5986030985E-02       6    3    1         0.1565727157E+00      0.6080985857E+00
          0                 3           2             6    3     1       0.2665859055E-02       6    3    1         0.6975980268E-01      0.2473973540E+00
          0                 4           2             6    3     1       0.1186893328E-02       6    3    1         0.3106423899E-01      0.1087850807E+00
          0                 5           2             6    3     1       0.5283612164E-03       6    3    1         0.1382983804E-01      0.4846519512E-01
          0                 6           2             6    3     1       0.2351918676E-03       6    3    1         0.6156416909E-02      0.2163621211E-01
          0                 7           1             6    3     1       0.1046879953E-03       6    3    1         0.2740406637E-02      0.9662697515E-02
          0                 8           1             6    3     1       0.4659714402E-04       6    3    1         0.1219794894E-02      0.4315896910E-02
          0                 9           1             6    3     1       0.2074013700E-04       6    3    1         0.5429341086E-03      0.1927892455E-02
          0                10           1             6    3     1       0.9231130026E-05       6    3    1         0.2416560361E-03      0.8612531267E-03

    ------------------------------------------------
       NWT REQUIRED           10 OUTER ITERATIONS 
       AND A TOTAL OF         16 INNER ITERATIONS.
    ------------------------------------------------

 NO OUTPUT CONTROL FOR STRESS PERIOD    2   TIME STEP    8
 
 SOLVING FOR HEAD 
                                                   Max.-Head-Change                         Max.-Flux-Residual
  Residual-Control   Outer-Iter.   Inner-Iter.     Column Row Layer    Maximum-Head-Change  Column Row Layer    Maximum-Flux-Residual          L2-NORM 
          0                 1           2             6    3     1       0.1329377645E-01       1   13    1         0.4132049273E+00      0.1980784603E+01
          0                 2           2             6    3     1       0.5924510087E-02       6    3    1         0.1549619684E+00      0.6040985549E+00
          0                 3           2             6    3     1       0.2638446629E-02       6    3    1         0.6904301144E-01      0.2459311368E+00
          0                 4           2             6    3     1       0.1174670426E-02       6    3    1         0.3074475921E-01      0.1081549798E+00
          0                 5           2             6    3     1       0.5229101981E-03       6    3    1         0.1368737249E-01      0.4818839048E-01
          0                 6           2             6    3     1       0.2327609178E-03       6    3    1         0.6092880672E-02      0.2151436840E-01
          0                 7           1             6    3     1       0.1036039666E-03       6    3    1         0.2712072042E-02      0.9609020405E-02
          0                 8           1             6    3     1       0.4611379405E-04       6    3    1         0.1207159909E-02      0.4292249307E-02
          0                 9           1             6    3     1       0.2052464195E-04       6    3    1         0.5373004796E-03      0.1917472708E-02
          0                10           1             6    3     1       0.9135064750E-05       6    3    1         0.2391444066E-03      0.8566603166E-03

    ------------------------------------------------
       NWT REQUIRED           10 OUTER ITERATIONS 
       AND A TOTAL OF         16 INNER ITERATIONS.
    ------------------------------------------------

 NO OUTPUT CONTROL FOR STRESS PERIOD    2   TIME STEP    9
 
 SOLVING FOR HEAD 
                                                   Max.-Head-Change                         Max.-Flux-Residual
  Residual-Control   Outer-Iter.   Inner-Iter.     Column Row Layer    Maximum-Head-Change  Column Row Layer    Maximum-Flux-Residual          L2-NORM 
          0                 1           2             6    3     1       0.1315787614E-01       5    4    1         0.3910744719E+00      0.1964952288E+01
          0                 2           2             6    3     1       0.5864088727E-02       6    3    1         0.1533798262E+00      0.6003734425E+00
          0                 3           2             6    3     1       0.2611528042E-02       6    3    1         0.6833904941E-01      0.2445149701E+00
          0                 4           2             6    3     1       0.1162669274E-02       6    3    1         0.3043104328E-01      0.1075425072E+00
          0                 5           2             6    3     1       0.5175586749E-03       6    3    1         0.1354749479E-01      0.4791909981E-01
          0                 6           2             6    3     1       0.2303745802E-03       6    3    1         0.6030505385E-02      0.2139575831E-01
          0                 7           1             6    3     1       0.1025399324E-03       6    3    1         0.2684257952E-02      0.9556758836E-02
          0                 8           1             6    3     1       0.4563940118E-04       6    3    1         0.1194758178E-02      0.4269220179E-02
          0                 9           1             6    3     1       0.2031315881E-04       6    3    1         0.5317713500E-03      0.1907323049E-02
          0                10           1             6    3     1       0.9040795897E-05       6    3    1         0.2366795803E-03      0.8521864282E-03

    ------------------------------------------------
       NWT REQUIRED           10 OUTER ITERATIONS 
       AND A TOTAL OF         16 INNER ITERATIONS.
    ------------------------------------------------

 OUTPUT CONTROL FOR STRESS PERIOD    2   TIME STEP   10
    PRINT BUDGET
    SAVE BUDGET
 UBUDSV SAVING "         STORAGE" ON UNIT102 AT TIME STEP    10, STRESS PERIOD    2
 UBUDSV SAVING "   CONSTANT HEAD" ON UNIT102 AT TIME STEP    10, STRESS PERIOD    2
 UBUDSV SAVING "FLOW RIGHT FACE " ON UNIT102 AT TIME STEP    10, STRESS PERIOD    2
 UBUDSV SAVING "FLOW FRONT FACE " ON UNIT102 AT TIME STEP    10, STRESS PERIOD    2

  HEAD DEP BOUNDS   PERIOD    2   STEP    10
 BOUNDARY      1   LAYER   1   ROW    13   COL     1   RATE   -0.283416    
 BOUNDARY      2   LAYER   1   ROW    14   COL     9   RATE     1.06831    



 STREAM LISTING     PERIOD      2   STEP       10

 LAYER ROW COL. STREAM  RCH.  FLOW INTO     FLOW TO   FLOW OUT OF   OVRLND.     DIRECT     STREAM       STREAM     STREAM     STREAM   STREAMBED  STREAMBED
                SEG.NO.  NO.  STRM. RCH.    AQUIFER    STRM. RCH.    RUNOFF     PRECIP       ET          HEAD       DEPTH      WIDTH   CONDCTNC.   GRADIENT

   1    1    1     1     1    2.2000E+01  2.3088E-09   2.2000E+01  0.000E+00  0.000E+00  0.000E+00  1.09418E+03  1.132E+00  1.242E+01  5.588E-10  1.377E+00
   1    2    2     1     2    2.2000E+01  3.5866E-09   2.2000E+01  0.000E+00  0.000E+00  0.000E+00  1.08919E+03  1.131E+00  1.240E+01  8.683E-10  1.377E+00
   1    3    3     1     3    2.2000E+01  3.0759E-09   2.2000E+01  0.000E+00  0.000E+00  0.000E+00  1.08355E+03  1.131E+00  1.241E+01  7.446E-10  1.377E+00
   1    3    4     1     4    2.2000E+01  2.8459E-09   2.2000E+01  0.000E+00  0.000E+00  0.000E+00  1.07854E+03  1.131E+00  1.241E+01  6.889E-10  1.377E+00
   1    4    5     2     1    2.0000E+01  3.1600E-01   1.9684E+01  0.000E+00  0.000E+00  0.000E+00  1.07299E+03  1.051E+00  1.200E+01  7.800E-02  1.350E+00
   1    5    6     2     2    1.9684E+01  2.4254E-01   1.9441E+01  0.000E+00  0.000E+00  0.000E+00  1.06755E+03  1.042E+00  1.200E+01  6.000E-02  1.347E+00
   1    6    6     2     3    1.9441E+01  2.4207E-01   1.9199E+01  0.000E+00  0.000E+00  0.000E+00  1.06283E+03  1.035E+00  1.200E+01  6.000E-02  1.345E+00
   1    7    6     2     4    1.9199E+01  2.4161E-01   1.8958E+01  0.000E+00  0.000E+00  0.000E+00  1.05810E+03  1.027E+00  1.200E+01  6.000E-02  1.342E+00
   1    8    6     2     5    1.8958E+01  2.4114E-01   1.8717E+01  0.000E+00  0.000E+00  0.000E+00  1.05338E+03  1.019E+00  1.200E+01  6.000E-02  1.340E+00
   1    3    5     3     1    2.0000E+00  2.8252E-01   1.7175E+00  0.000E+00  0.000E+00  0.000E+00  1.07555E+03  1.909E+00  9.636E+00  7.227E-02  1.955E+00
   1    3    6     3     2    1.7175E+00  2.4905E-01   1.4684E+00  0.000E+00  0.000E+00  0.000E+00  1.07264E+03  1.727E+00  8.909E+00  6.682E-02  1.864E+00
   1    3    7     3     3    1.4684E+00  1.9718E-01   1.2712E+00  0.000E+00  0.000E+00  0.000E+00  1.06987E+03  1.555E+00  8.218E+00  5.547E-02  1.777E+00
   1    4    8     3     4    1.2712E+00  2.2567E-01   1.0456E+00  0.000E+00  0.000E+00  0.000E+00  1.06682E+03  1.364E+00  7.455E+00  6.709E-02  1.682E+00
   1    5    8     3     5    1.0456E+00  1.5790E-01   8.8768E-01  0.000E+00  0.000E+00  0.000E+00  1.06362E+03  1.164E+00  6.655E+00  4.991E-02  1.582E+00
   1    6    8     3     6    8.8768E-01  5.5980E-02   8.3170E-01  0.000E+00  0.000E+00  0.000E+00  1.06158E+03  1.036E+00  6.145E+00  1.844E-02  1.518E+00
   1    5   10     4     1    1.0000E+01  9.0919E-02   9.9091E+00  0.000E+00  0.000E+00  0.000E+00  1.07836E+03  6.368E-01  1.000E+01  2.500E-02  1.212E+00
   1    5    9     4     2    9.9091E+00  1.8158E-01   9.7275E+00  0.000E+00  0.000E+00  0.000E+00  1.07154E+03  6.315E-01  1.000E+01  5.000E-02  1.211E+00
   1    6    8     4     3    9.7275E+00  1.2689E-01   9.6006E+00  0.000E+00  0.000E+00  0.000E+00  1.06381E+03  6.256E-01  1.000E+01  3.500E-02  1.209E+00
   1    6    8     5     1    1.0432E+01  2.2686E-09   1.0432E+01  0.000E+00  0.000E+00  0.000E+00  1.05868E+03  6.790E-01  1.542E+01  6.166E-10  1.226E+00
   1    7    7     5     2    1.0432E+01  2.8306E-09   1.0432E+01  0.000E+00  0.000E+00  0.000E+00  1.05418E+03  6.784E-01  1.539E+01  7.695E-10  1.226E+00
   1    8    7     5     3    1.0432E+01  1.9868E-09   1.0432E+01  0.000E+00  0.000E+00  0.000E+00  1.04993E+03  6.794E-01  1.543E+01  5.400E-10  1.226E+00
   1    8    6     5     4    1.0432E+01  1.4217E-09   1.0432E+01  0.000E+00  0.000E+00  0.000E+00  1.04693E+03  6.800E-01  1.545E+01  3.863E-10  1.227E+00
   1    9    6     6     1    2.9149E+01  2.6012E-01   2.8889E+01  0.000E+00  0.000E+00  0.000E+00  1.04406E+03  1.335E+00  1.200E+01  6.000E-02  1.445E+00
   1   10    7     6     2    2.8889E+01  2.5969E-01   2.8629E+01  0.000E+00  0.000E+00  0.000E+00  1.03951E+03  1.328E+00  1.200E+01  6.000E-02  1.443E+00
   1   11    7     6     3    2.8629E+01  2.5925E-01   2.8370E+01  0.000E+00  0.000E+00  0.000E+00  1.03496E+03  1.321E+00  1.200E+01  6.000E-02  1.440E+00
   1   12    7     6     4    2.8370E+01  2.5882E-01   2.8111E+01  0.000E+00  0.000E+00  0.000E+00  1.03040E+03  1.314E+00  1.200E+01  6.000E-02  1.438E+00
   1   13    7     6     5    2.8111E+01  1.0341E-01   2.8008E+01  0.000E+00  0.000E+00  0.000E+00  1.02722E+03  1.309E+00  1.200E+01  2.400E-02  1.436E+00
   1   14    9     7     1    1.5000E+02  2.9539E-08   1.5000E+02  0.000E+00  0.000E+00  0.000E+00  1.03986E+03  2.283E+00  5.528E+01  5.591E-09  1.761E+00
   1   13    8     7     2    1.5000E+02  3.2486E-14   1.5000E+02  0.000E+00  0.000E+00  0.000E+00  1.03478E+03  2.283E+00  5.527E+01  6.150E-15  1.761E+00
   1   13    7     7     3    1.5000E+02  2.9539E-08   1.5000E+02  0.000E+00  0.000E+00  0.000E+00  1.02970E+03  2.283E+00  5.528E+01  5.591E-09  1.761E+00
   1   13    6     8     1    1.7801E+02  2.6533E-11   1.7801E+02  0.000E+00  0.000E+00  0.000E+00  1.02487E+03  2.995E+00  4.343E+01  4.426E-12  1.998E+00
   1   13    5     8     2    1.7801E+02  0.0000E+00   1.7801E+02  0.000E+00  0.000E+00  0.000E+00  1.01863E+03  3.004E+00  4.355E+01  0.000E+00  2.001E+00
   1   13    4     8     3    1.7801E+02  2.4822E-17   1.7801E+02  0.000E+00  0.000E+00  0.000E+00  1.01237E+03  2.996E+00  4.344E+01  4.426E-18  1.869E+00
   1   13    3     8     4    1.7801E+02  7.6375E-11   1.7801E+02  0.000E+00  0.000E+00  0.000E+00  1.00613E+03  3.001E+00  4.352E+01  4.435E-11  5.741E-01
   1   13    2     8     5    1.7801E+02 -7.9453E-01   1.7880E+02  0.000E+00  0.000E+00  0.000E+00  9.99881E+02  3.006E+00  4.359E+01  4.442E+00 -5.962E-02
   1   13    1     8     6    1.7880E+02 -1.5225E+00   1.8032E+02  0.000E+00  0.000E+00  0.000E+00  9.94888E+02  3.013E+00  4.369E+01  2.672E+00 -1.900E-01
   1    6    8     9     1    0.0000E+00  0.0000E+00   0.0000E+00  0.000E+00  0.000E+00  0.000E+00  1.07850E+03  0.000E+00  4.000E+00  0.000E+00  1.000E+00



 UBDSV3 SAVING "     NETRECHARGE" ON UNIT 100 AT TIME STEP    10, STRESS PERIOD   2
 UBDSV3 SAVING "    NETDISCHARGE" ON UNIT 101 AT TIME STEP    10, STRESS PERIOD   2
 UBDSV3 SAVING "           GW ET" ON UNIT  61 AT TIME STEP    10, STRESS PERIOD   2
 UBDSV3 SAVING "    UZF RECHARGE" ON UNIT  61 AT TIME STEP    10, STRESS PERIOD   2
 UBDSV3 SAVING " SURFACE LEAKAGE" ON UNIT  61 AT TIME STEP    10, STRESS PERIOD   2
 UBDSV3 SAVING "       HORT+DUNN" ON UNIT  61 AT TIME STEP    10, STRESS PERIOD   2
 UBDSV3 SAVING "  STORAGE CHANGE" ON UNIT  61 AT TIME STEP    10, STRESS PERIOD   2


UNSATURATED ZONE PACKAGE VOLUMETRIC BUDGET FOR  TIME STEP    10 STRESS PERIOD    2
  ------------------------------------------------------------------------------



     CUMULATIVE VOLUMES      L**3       RATES FOR THIS TIME STEP      L**3/T
     ------------------                 ------------------------

           IN:                                      IN:
           ---                                      ---
        INFILTRATION =     2969640.0000          INFILTRATION =           0.8475

          OUT:                                     OUT:
          ----                                     ----
              UZF ET =      250860.7044                UZF ET =           0.2863
        UZF RECHARGE =    28389991.2656          UZF RECHARGE =          29.6360

            IN - OUT =   -25671211.9700              IN - OUT =         -29.0748

          STORAGE:                                 STORAGE:
          --------                                 --------
      STORAGE CHANGE =   -25670575.1225        STORAGE CHANGE =         -29.0748

 PERCENT DISCREPANCY IS DIFFERENCE BETWEEN IN-OUT MINUS CHANGE IN STORAGE
 DIVIDED BY THE AVERAGE OF IN AND OUT TIMES 100

 PERCENT DISCREPANCY =          -0.00     PERCENT DISCREPANCY =          -0.00






1
  VOLUMETRIC BUDGET FOR ENTIRE MODEL AT END OF TIME STEP   10, STRESS PERIOD   2
  ------------------------------------------------------------------------------

     CUMULATIVE VOLUMES      L**3       RATES FOR THIS TIME STEP      L**3/T
     ------------------                 ------------------------

           IN:                                      IN:
           ---                                      ---
             STORAGE =           0.0000               STORAGE =           0.0000
       CONSTANT HEAD =           0.0000         CONSTANT HEAD =           0.0000
               WELLS =           0.0000                 WELLS =           0.0000
     HEAD DEP BOUNDS =     3747354.5000       HEAD DEP BOUNDS =           1.0683
      STREAM LEAKAGE =     7089895.5000        STREAM LEAKAGE =           3.9923
        UZF RECHARGE =    28389988.0000          UZF RECHARGE =          29.6360
               GW ET =           0.0000                 GW ET =           0.0000
     SURFACE LEAKAGE =           0.0000       SURFACE LEAKAGE =           0.0000

            TOTAL IN =    39227240.0000              TOTAL IN =          34.6967

          OUT:                                     OUT:
          ----                                     ----
             STORAGE =    28594360.0000               STORAGE =          32.0897
       CONSTANT HEAD =           0.0000         CONSTANT HEAD =           0.0000
               WELLS =           0.0000                 WELLS =           0.0000
     HEAD DEP BOUNDS =      980275.0000       HEAD DEP BOUNDS =           0.2834
      STREAM LEAKAGE =     7675925.5000        STREAM LEAKAGE =           2.3170
        UZF RECHARGE =           0.0000          UZF RECHARGE =           0.0000
               GW ET =     1974179.2500                 GW ET =       3.6988E-03
     SURFACE LEAKAGE =           0.0000       SURFACE LEAKAGE =           0.0000

           TOTAL OUT =    39224740.0000             TOTAL OUT =          34.6939

            IN - OUT =        2500.0000              IN - OUT =       2.8114E-03

 PERCENT DISCREPANCY =           0.01     PERCENT DISCREPANCY =           0.01






         TIME SUMMARY AT END OF TIME STEP   10 IN STRESS PERIOD    2
                    SECONDS     MINUTES      HOURS       DAYS        YEARS
                    -----------------------------------------------------------
   TIME STEP LENGTH  87600.      1460.0      24.333      1.0139     2.77588E-03
 STRESS PERIOD TIME 8.76000E+05  14600.      243.33      10.139     2.77588E-02
         TOTAL TIME 3.50400E+06  58400.      973.33      40.556     0.11104    
1
 
 SOLVING FOR HEAD 
                                                   Max.-Head-Change                         Max.-Flux-Residual
  Residual-Control   Outer-Iter.   Inner-Iter.     Column Row Layer    Maximum-Head-Change  Column Row Layer    Maximum-Flux-Residual          L2-NORM 
          0                 1           2             6    3     1       0.1302423652E-01       5    4    1         0.3856637659E+00      0.1951271943E+01
          0                 2           2             6    3     1       0.5804664761E-02       6    3    1         0.1518240016E+00      0.5968947381E+00
          0                 3           2             6    3     1       0.2585052657E-02       6    3    1         0.6764668784E-01      0.2431466852E+00
          0                 4           2             6    3     1       0.1150866182E-02       6    3    1         0.3012249154E-01      0.1069472342E+00
          0                 5           2             6    3     1       0.5122958786E-03       6    3    1         0.1340992687E-01      0.4765710916E-01
          0                 6           2             6    3     1       0.2280280266E-03       6    3    1         0.5969165201E-02      0.2128032194E-01
          0                 7           1             6    3     1       0.1014937403E-03       6    3    1         0.2656908042E-02      0.9505889648E-02
          0                 8           1             6    3     1       0.4517300924E-04       6    3    1         0.1182564627E-02      0.4246798959E-02
          0                 9           1             6    3     1       0.2010526251E-04       6    3    1         0.5263355753E-03      0.1897438720E-02
          0                10           1             6    3     1       0.8948135133E-05       6    3    1         0.2342566118E-03      0.8478298863E-03

    ------------------------------------------------
       NWT REQUIRED           10 OUTER ITERATIONS 
       AND A TOTAL OF         16 INNER ITERATIONS.
    ------------------------------------------------

 NO OUTPUT CONTROL FOR STRESS PERIOD    2   TIME STEP   11
 
 SOLVING FOR HEAD 
                                                   Max.-Head-Change                         Max.-Flux-Residual
  Residual-Control   Outer-Iter.   Inner-Iter.     Column Row Layer    Maximum-Head-Change  Column Row Layer    Maximum-Flux-Residual          L2-NORM 
          0                 1           2             6    3     1       0.1289261676E-01       5    4    1         0.3805472980E+00      0.1939423115E+01
          0                 2           2             6    3     1       0.5746139363E-02       6    3    1         0.1502916260E+00      0.5936283650E+00
          0                 3           2             6    3     1       0.2558979961E-02       6    3    1         0.6696480338E-01      0.2418216409E+00
          0                 4           2             6    3     1       0.1139243830E-02       6    3    1         0.2981863821E-01      0.1063677924E+00
          0                 5           2             6    3     1       0.5071142300E-03       6    3    1         0.1327446817E-01      0.4740186925E-01
          0                 6           2             6    3     1       0.2257179015E-03       6    3    1         0.5908772029E-02      0.2116943244E-01
          0                 7           1             6    3     1       0.1004638977E-03       6    3    1         0.2629983256E-02      0.9457424730E-02
          0                 8           1             6    3     1       0.4471395305E-04       6    3    1         0.1170561861E-02      0.4225622186E-02
          0                 9           1             6    3     1       0.1990065692E-04       6    3    1         0.5209853909E-03      0.1888188990E-02
          0                10           1             6    3     1       0.8856949024E-05       6    3    1         0.2318720205E-03      0.8437895958E-03

    ------------------------------------------------
       NWT REQUIRED           10 OUTER ITERATIONS 
       AND A TOTAL OF         16 INNER ITERATIONS.
    ------------------------------------------------

 NO OUTPUT CONTROL FOR STRESS PERIOD    2   TIME STEP   12
 
 SOLVING FOR HEAD 
                                                   Max.-Head-Change                         Max.-Flux-Residual
  Residual-Control   Outer-Iter.   Inner-Iter.     Column Row Layer    Maximum-Head-Change  Column Row Layer    Maximum-Flux-Residual          L2-NORM 
          0                 1           2             6    3     1       0.1276327730E-01       5    4    1         0.3757985816E+00      0.1929149331E+01
          0                 2           2             6    3     1       0.5688625352E-02       6    3    1         0.1487857416E+00      0.5905599733E+00
          0                 3           2             6    3     1       0.2533359078E-02       6    3    1         0.6629470167E-01      0.2405487468E+00
          0                 4           2             6    3     1       0.1127823801E-02       6    3    1         0.2952005372E-01      0.1058129075E+00
          0                 5           2             6    3     1       0.5020232442E-03       6    3    1         0.1314136962E-01      0.4715927020E-01
          0                 6           2             6    3     1       0.2234484060E-03       6    3    1         0.5849436541E-02      0.2106181067E-01
          0                 7           1             6    3     1       0.9945225880E-04       6    3    1         0.2603532440E-02      0.9409993683E-02
          0                 8           1             6    3     1       0.4426305161E-04       6    3    1         0.1158771463E-02      0.4204716986E-02
          0                 9           1             6    3     1       0.1969970282E-04       6    3    1         0.5157303363E-03      0.1878973725E-02
          0                10           1             6    3     1       0.8767398515E-05       6    3    1         0.2295300420E-03      0.8397273149E-03

    ------------------------------------------------
       NWT REQUIRED           10 OUTER ITERATIONS 
       AND A TOTAL OF         16 INNER ITERATIONS.
    ------------------------------------------------

 NO OUTPUT CONTROL FOR STRESS PERIOD    2   TIME STEP   13
 
 SOLVING FOR HEAD 
                                                   Max.-Head-Change                         Max.-Flux-Residual
  Residual-Control   Outer-Iter.   Inner-Iter.     Column Row Layer    Maximum-Head-Change  Column Row Layer    Maximum-Flux-Residual          L2-NORM 
          0                 1           2             6    3     1       0.1263599231E-01       5    4    1         0.3713992451E+00      0.1920216069E+01
          0                 2           2             6    3     1       0.5632023403E-02       6    3    1         0.1473037290E+00      0.5876695930E+00
          0                 3           2             6    3     1       0.2508146010E-02       6    3    1         0.6563522735E-01      0.2393129347E+00
          0                 4           2             6    3     1       0.1116586556E-02       6    3    1         0.2922622575E-01      0.1052679995E+00
          0                 5           2             6    3     1       0.4970142333E-03       6    3    1         0.1301040360E-01      0.4691892686E-01
          0                 6           2             6    3     1       0.2212156757E-03       6    3    1         0.5791057539E-02      0.2095583952E-01
          0                 7           1             6    3     1       0.9845710685E-04       6    3    1         0.2577510616E-02      0.9363270583E-02
          0                 8           1             6    3     1       0.4381954145E-04       6    3    1         0.1147173421E-02      0.4184114491E-02
          0                 9           1             6    3     1       0.1950206170E-04       6    3    1         0.5105615033E-03      0.1869887400E-02
          0                10           1             6    3     1       0.8679332041E-05       6    3    1         0.2272266936E-03      0.8357198484E-03

    ------------------------------------------------
       NWT REQUIRED           10 OUTER ITERATIONS 
       AND A TOTAL OF         16 INNER ITERATIONS.
    ------------------------------------------------

 NO OUTPUT CONTROL FOR STRESS PERIOD    2   TIME STEP   14
 
 SOLVING FOR HEAD 
                                                   Max.-Head-Change                         Max.-Flux-Residual
  Residual-Control   Outer-Iter.   Inner-Iter.     Column Row Layer    Maximum-Head-Change  Column Row Layer    Maximum-Flux-Residual          L2-NORM 
          0                 1           2             6    3     1       0.1251070444E-01       5    4    1         0.3673145346E+00      0.1912441693E+01
          0                 2           2             6    3     1       0.5576308747E-02       6    3    1         0.1458449264E+00      0.5849334575E+00
          0                 3           2             6    3     1       0.2483329918E-02       6    3    1         0.6498609318E-01      0.2381147887E+00
          0                 4           2             6    3     1       0.1105527327E-02       6    3    1         0.2893702839E-01      0.1047377288E+00
          0                 5           2             6    3     1       0.4920851008E-03       6    3    1         0.1288151474E-01      0.4668487728E-01
          0                 6           2             6    3     1       0.2190187879E-03       6    3    1         0.5733610631E-02      0.2085261481E-01
          0                 7           1             6    3     1       0.9747803404E-04       6    3    1         0.2551907016E-02      0.9317748066E-02
          0                 8           1             6    3     1       0.4338324187E-04       6    3    1         0.1135762991E-02      0.4164761069E-02
          0                 9           1             6    3     1       0.1930765401E-04       6    3    1         0.5054768217E-03      0.1862045760E-02
          0                10           1             6    3     1       0.8592714835E-05       6    3    1         0.2249610763E-03      0.8318736689E-03

    ------------------------------------------------
       NWT REQUIRED           10 OUTER ITERATIONS 
       AND A TOTAL OF         16 INNER ITERATIONS.
    ------------------------------------------------

 OUTPUT CONTROL FOR STRESS PERIOD    2   TIME STEP   15
    PRINT BUDGET
    PRINT HEAD FOR ALL LAYERS
    SAVE HEAD FOR ALL LAYERS
    SAVE BUDGET
 UBUDSV SAVING "         STORAGE" ON UNIT102 AT TIME STEP    15, STRESS PERIOD    2
 UBUDSV SAVING "   CONSTANT HEAD" ON UNIT102 AT TIME STEP    15, STRESS PERIOD    2
 UBUDSV SAVING "FLOW RIGHT FACE " ON UNIT102 AT TIME STEP    15, STRESS PERIOD    2
 UBUDSV SAVING "FLOW FRONT FACE " ON UNIT102 AT TIME STEP    15, STRESS PERIOD    2

  HEAD DEP BOUNDS   PERIOD    2   STEP    15
 BOUNDARY      1   LAYER   1   ROW    13   COL     1   RATE   -0.284777    
 BOUNDARY      2   LAYER   1   ROW    14   COL     9   RATE     1.06763    



 STREAM LISTING     PERIOD      2   STEP       15

 LAYER ROW COL. STREAM  RCH.  FLOW INTO     FLOW TO   FLOW OUT OF   OVRLND.     DIRECT     STREAM       STREAM     STREAM     STREAM   STREAMBED  STREAMBED
                SEG.NO.  NO.  STRM. RCH.    AQUIFER    STRM. RCH.    RUNOFF     PRECIP       ET          HEAD       DEPTH      WIDTH   CONDCTNC.   GRADIENT

   1    1    1     1     1    2.2000E+01  2.3088E-09   2.2000E+01  0.000E+00  0.000E+00  0.000E+00  1.09418E+03  1.132E+00  1.242E+01  5.588E-10  1.377E+00
   1    2    2     1     2    2.2000E+01  3.5866E-09   2.2000E+01  0.000E+00  0.000E+00  0.000E+00  1.08919E+03  1.131E+00  1.240E+01  8.683E-10  1.377E+00
   1    3    3     1     3    2.2000E+01  3.0759E-09   2.2000E+01  0.000E+00  0.000E+00  0.000E+00  1.08355E+03  1.131E+00  1.241E+01  7.446E-10  1.377E+00
   1    3    4     1     4    2.2000E+01  2.8459E-09   2.2000E+01  0.000E+00  0.000E+00  0.000E+00  1.07854E+03  1.131E+00  1.241E+01  6.889E-10  1.377E+00
   1    4    5     2     1    2.0000E+01  3.1600E-01   1.9684E+01  0.000E+00  0.000E+00  0.000E+00  1.07299E+03  1.051E+00  1.200E+01  7.800E-02  1.350E+00
   1    5    6     2     2    1.9684E+01  2.4254E-01   1.9441E+01  0.000E+00  0.000E+00  0.000E+00  1.06755E+03  1.042E+00  1.200E+01  6.000E-02  1.347E+00
   1    6    6     2     3    1.9441E+01  2.4207E-01   1.9199E+01  0.000E+00  0.000E+00  0.000E+00  1.06283E+03  1.035E+00  1.200E+01  6.000E-02  1.345E+00
   1    7    6     2     4    1.9199E+01  2.4161E-01   1.8958E+01  0.000E+00  0.000E+00  0.000E+00  1.05810E+03  1.027E+00  1.200E+01  6.000E-02  1.342E+00
   1    8    6     2     5    1.8958E+01  2.4114E-01   1.8717E+01  0.000E+00  0.000E+00  0.000E+00  1.05338E+03  1.019E+00  1.200E+01  6.000E-02  1.340E+00
   1    3    5     3     1    2.0000E+00  2.8252E-01   1.7175E+00  0.000E+00  0.000E+00  0.000E+00  1.07555E+03  1.909E+00  9.636E+00  7.227E-02  1.955E+00
   1    3    6     3     2    1.7175E+00  2.4905E-01   1.4684E+00  0.000E+00  0.000E+00  0.000E+00  1.07264E+03  1.727E+00  8.909E+00  6.682E-02  1.864E+00
   1    3    7     3     3    1.4684E+00  1.9718E-01   1.2712E+00  0.000E+00  0.000E+00  0.000E+00  1.06987E+03  1.555E+00  8.218E+00  5.547E-02  1.777E+00
   1    4    8     3     4    1.2712E+00  2.2567E-01   1.0456E+00  0.000E+00  0.000E+00  0.000E+00  1.06682E+03  1.364E+00  7.455E+00  6.709E-02  1.682E+00
   1    5    8     3     5    1.0456E+00  1.5790E-01   8.8768E-01  0.000E+00  0.000E+00  0.000E+00  1.06362E+03  1.164E+00  6.655E+00  4.991E-02  1.582E+00
   1    6    8     3     6    8.8768E-01  5.5980E-02   8.3170E-01  0.000E+00  0.000E+00  0.000E+00  1.06158E+03  1.036E+00  6.145E+00  1.844E-02  1.518E+00
   1    5   10     4     1    1.0000E+01  9.0919E-02   9.9091E+00  0.000E+00  0.000E+00  0.000E+00  1.07836E+03  6.368E-01  1.000E+01  2.500E-02  1.212E+00
   1    5    9     4     2    9.9091E+00  1.8158E-01   9.7275E+00  0.000E+00  0.000E+00  0.000E+00  1.07154E+03  6.315E-01  1.000E+01  5.000E-02  1.211E+00
   1    6    8     4     3    9.7275E+00  1.2689E-01   9.6006E+00  0.000E+00  0.000E+00  0.000E+00  1.06381E+03  6.256E-01  1.000E+01  3.500E-02  1.209E+00
   1    6    8     5     1    1.0432E+01  2.2686E-09   1.0432E+01  0.000E+00  0.000E+00  0.000E+00  1.05868E+03  6.790E-01  1.542E+01  6.166E-10  1.226E+00
   1    7    7     5     2    1.0432E+01  2.8306E-09   1.0432E+01  0.000E+00  0.000E+00  0.000E+00  1.05418E+03  6.784E-01  1.539E+01  7.695E-10  1.226E+00
   1    8    7     5     3    1.0432E+01  1.9868E-09   1.0432E+01  0.000E+00  0.000E+00  0.000E+00  1.04993E+03  6.794E-01  1.543E+01  5.400E-10  1.226E+00
   1    8    6     5     4    1.0432E+01  1.4217E-09   1.0432E+01  0.000E+00  0.000E+00  0.000E+00  1.04693E+03  6.800E-01  1.545E+01  3.863E-10  1.227E+00
   1    9    6     6     1    2.9149E+01  2.6012E-01   2.8889E+01  0.000E+00  0.000E+00  0.000E+00  1.04406E+03  1.335E+00  1.200E+01  6.000E-02  1.445E+00
   1   10    7     6     2    2.8889E+01  2.5969E-01   2.8629E+01  0.000E+00  0.000E+00  0.000E+00  1.03951E+03  1.328E+00  1.200E+01  6.000E-02  1.443E+00
   1   11    7     6     3    2.8629E+01  2.5925E-01   2.8370E+01  0.000E+00  0.000E+00  0.000E+00  1.03496E+03  1.321E+00  1.200E+01  6.000E-02  1.440E+00
   1   12    7     6     4    2.8370E+01  2.5882E-01   2.8111E+01  0.000E+00  0.000E+00  0.000E+00  1.03040E+03  1.314E+00  1.200E+01  6.000E-02  1.438E+00
   1   13    7     6     5    2.8111E+01  1.0341E-01   2.8008E+01  0.000E+00  0.000E+00  0.000E+00  1.02722E+03  1.309E+00  1.200E+01  2.400E-02  1.436E+00
   1   14    9     7     1    1.5000E+02  2.9539E-08   1.5000E+02  0.000E+00  0.000E+00  0.000E+00  1.03986E+03  2.283E+00  5.528E+01  5.591E-09  1.761E+00
   1   13    8     7     2    1.5000E+02  3.2486E-14   1.5000E+02  0.000E+00  0.000E+00  0.000E+00  1.03478E+03  2.283E+00  5.527E+01  6.150E-15  1.761E+00
   1   13    7     7     3    1.5000E+02  2.9539E-08   1.5000E+02  0.000E+00  0.000E+00  0.000E+00  1.02970E+03  2.283E+00  5.528E+01  5.591E-09  1.761E+00
   1   13    6     8     1    1.7801E+02  2.6533E-11   1.7801E+02  0.000E+00  0.000E+00  0.000E+00  1.02487E+03  2.995E+00  4.343E+01  4.426E-12  1.998E+00
   1   13    5     8     2    1.7801E+02  0.0000E+00   1.7801E+02  0.000E+00  0.000E+00  0.000E+00  1.01863E+03  3.004E+00  4.355E+01  0.000E+00  2.001E+00
   1   13    4     8     3    1.7801E+02  2.4729E-16   1.7801E+02  0.000E+00  0.000E+00  0.000E+00  1.01237E+03  2.996E+00  4.344E+01  4.427E-17  1.862E+00
   1   13    3     8     4    1.7801E+02  7.4621E-08   1.7801E+02  0.000E+00  0.000E+00  0.000E+00  1.00613E+03  3.001E+00  4.352E+01  4.435E-08  5.609E-01
   1   13    2     8     5    1.7801E+02 -9.2569E-01   1.7893E+02  0.000E+00  0.000E+00  0.000E+00  9.99882E+02  3.007E+00  4.359E+01  4.442E+00 -6.946E-02
   1   13    1     8     6    1.7893E+02 -1.6158E+00   1.8055E+02  0.000E+00  0.000E+00  0.000E+00  9.94890E+02  3.015E+00  4.371E+01  2.673E+00 -2.015E-01
   1    6    8     9     1    0.0000E+00  0.0000E+00   0.0000E+00  0.000E+00  0.000E+00  0.000E+00  1.07850E+03  0.000E+00  4.000E+00  0.000E+00  1.000E+00



 UBDSV3 SAVING "     NETRECHARGE" ON UNIT 100 AT TIME STEP    15, STRESS PERIOD   2
 UBDSV3 SAVING "    NETDISCHARGE" ON UNIT 101 AT TIME STEP    15, STRESS PERIOD   2
 UBDSV3 SAVING "           GW ET" ON UNIT  61 AT TIME STEP    15, STRESS PERIOD   2
 UBDSV3 SAVING "    UZF RECHARGE" ON UNIT  61 AT TIME STEP    15, STRESS PERIOD   2
 UBDSV3 SAVING " SURFACE LEAKAGE" ON UNIT  61 AT TIME STEP    15, STRESS PERIOD   2
 UBDSV3 SAVING "       HORT+DUNN" ON UNIT  61 AT TIME STEP    15, STRESS PERIOD   2
 UBDSV3 SAVING "  STORAGE CHANGE" ON UNIT  61 AT TIME STEP    15, STRESS PERIOD   2


UNSATURATED ZONE PACKAGE VOLUMETRIC BUDGET FOR  TIME STEP    15 STRESS PERIOD    2
  ------------------------------------------------------------------------------



     CUMULATIVE VOLUMES      L**3       RATES FOR THIS TIME STEP      L**3/T
     ------------------                 ------------------------

           IN:                                      IN:
           ---                                      ---
        INFILTRATION =     3340845.0000          INFILTRATION =           0.8475

          OUT:                                     OUT:
          ----                                     ----
              UZF ET =      376245.5327                UZF ET =           0.2862
        UZF RECHARGE =    41317299.5195          UZF RECHARGE =          29.4390

            IN - OUT =   -38352700.0522              IN - OUT =         -28.8777

          STORAGE:                                 STORAGE:
          --------                                 --------
      STORAGE CHANGE =   -38352058.5631        STORAGE CHANGE =         -28.8777

 PERCENT DISCREPANCY IS DIFFERENCE BETWEEN IN-OUT MINUS CHANGE IN STORAGE
 DIVIDED BY THE AVERAGE OF IN AND OUT TIMES 100

 PERCENT DISCREPANCY =          -0.00     PERCENT DISCREPANCY =          -0.00






1
              HEAD IN LAYER   1 AT END OF TIME STEP    15 IN STRESS PERIOD    2
  -----------------------------------------------------------------------------

           1       2       3       4       5       6       7       8       9      10
 ...................................................................................
   1  1011.44 1011.30 6999.00 6999.00 6999.00 6999.00 6999.00 6999.00 6999.00 6999.00
   2  1011.62 1010.95 1010.87 6999.00 6999.00 1011.93 1011.99 1012.00 6999.00 6999.00
   3  6999.00 1011.03 1010.79 1010.75 1011.10 1011.29 1011.44 1011.51 6999.00 6999.00
   4  1011.64 1011.13 1010.83 1010.68 1010.76 1010.74 1010.98 1011.46 1011.78 6999.00
   5  1011.57 1011.05 1010.75 1010.58 1010.60 1010.72 1010.81 1011.11 1011.76 1012.47
   6  1011.47 1010.91 1010.62 1010.45 1010.47 1010.61 1010.70 1010.95 1011.46 1012.46
   7  1011.35 1010.66 1010.41 1010.26 1010.30 1010.45 1010.53 1010.73 1011.27 6999.00
   8  6999.00 1010.22 1010.10 1010.01 1010.08 1010.26 1010.34 1010.71 1011.29 6999.00
   9  6999.00 1009.56 1009.61 1009.64 1009.77 1010.04 1010.19 1010.61 1011.37 6999.00
  10  6999.00 1008.58 1008.85 1009.12 1009.39 1009.75 1010.16 1010.64 1011.56 1012.36
  11  6999.00 1006.85 1007.56 1008.41 1008.94 1009.51 1010.13 1010.82 1011.93 6999.00
  12   999.67 1003.62 1005.96 1007.44 1008.44 1009.33 1010.19 1011.36 1013.14 6999.00
  13   995.49 1000.09 1004.44 1006.78 1008.15 1009.30 1010.54 1012.12 1014.73 6999.00
  14  6999.00 1003.32 1005.07 1006.95 1008.40 1009.71 1011.33 1013.88 1016.90 6999.00
  15  6999.00 6999.00 1006.94 1007.92 1008.98 1009.76 6999.00 6999.00 6999.00 6999.00

 HEAD WILL BE SAVED ON UNIT   62 AT END OF TIME STEP   15, STRESS PERIOD    2
1
  VOLUMETRIC BUDGET FOR ENTIRE MODEL AT END OF TIME STEP   15, STRESS PERIOD   2
  ------------------------------------------------------------------------------

     CUMULATIVE VOLUMES      L**3       RATES FOR THIS TIME STEP      L**3/T
     ------------------                 ------------------------

           IN:                                      IN:
           ---                                      ---
             STORAGE =           0.0000               STORAGE =           0.0000
       CONSTANT HEAD =           0.0000         CONSTANT HEAD =           0.0000
               WELLS =           0.0000                 WELLS =           0.0000
     HEAD DEP BOUNDS =     4215094.0000       HEAD DEP BOUNDS =           1.0676
      STREAM LEAKAGE =     8838535.0000        STREAM LEAKAGE =           3.9923
        UZF RECHARGE =    41317300.0000          UZF RECHARGE =          29.4390
               GW ET =           0.0000                 GW ET =           0.0000
     SURFACE LEAKAGE =           0.0000       SURFACE LEAKAGE =           0.0000

            TOTAL IN =    54370928.0000              TOTAL IN =          34.4989

          OUT:                                     OUT:
          ----                                     ----
             STORAGE =    42533812.0000               STORAGE =          31.6661
       CONSTANT HEAD =           0.0000         CONSTANT HEAD =           0.0000
               WELLS =           0.0000                 WELLS =           0.0000
     HEAD DEP BOUNDS =     1104783.5000       HEAD DEP BOUNDS =           0.2848
      STREAM LEAKAGE =     8752803.0000        STREAM LEAKAGE =           2.5415
        UZF RECHARGE =           0.0000          UZF RECHARGE =           0.0000
               GW ET =     1975814.5000                 GW ET =       3.7543E-03
     SURFACE LEAKAGE =           0.0000       SURFACE LEAKAGE =           0.0000

           TOTAL OUT =    54367216.0000             TOTAL OUT =          34.4962

            IN - OUT =        3712.0000              IN - OUT =       2.7466E-03

 PERCENT DISCREPANCY =           0.01     PERCENT DISCREPANCY =           0.01






         TIME SUMMARY AT END OF TIME STEP   15 IN STRESS PERIOD    2
                    SECONDS     MINUTES      HOURS       DAYS        YEARS
                    -----------------------------------------------------------
   TIME STEP LENGTH  87600.      1460.0      24.333      1.0139     2.77588E-03
 STRESS PERIOD TIME 1.31400E+06  21900.      365.00      15.208     4.16381E-02
         TOTAL TIME 3.94200E+06  65700.      1095.0      45.625     0.12491    
1
 
 SOLVING FOR HEAD 
                                                   Max.-Head-Change                         Max.-Flux-Residual
  Residual-Control   Outer-Iter.   Inner-Iter.     Column Row Layer    Maximum-Head-Change  Column Row Layer    Maximum-Flux-Residual          L2-NORM 
          0                 1           2             6    3     1       0.1238751874E-01       5    4    1         0.3635248313E+00      0.1905661195E+01
          0                 2           2             6    3     1       0.5521527345E-02       6    3    1         0.1444105574E+00      0.5823346970E+00
          0                 3           2             6    3     1       0.2458930718E-02       6    3    1         0.6434783259E-01      0.2369516334E+00
          0                 4           2             6    3     1       0.1094654713E-02       6    3    1         0.2865269248E-01      0.1042211975E+00
          0                 5           2             6    3     1       0.4872395495E-03       6    3    1         0.1275480260E-01      0.4645674230E-01
          0                 6           2             6    3     1       0.2168593359E-03       6    3    1         0.5677138707E-02      0.2075197621E-01
          0                 7           1             6    3     1       0.9651572618E-04       6    3    1         0.2526740106E-02      0.9273357067E-02
          0                 8           1             6    3     1       0.4295444887E-04       6    3    1         0.1124548111E-02      0.4144453377E-02
          0                 9           1             6    3     1       0.1911660532E-04       6    3    1         0.5004796812E-03      0.1852391377E-02
          0                10           1             6    3     1       0.8507601297E-05       6    3    1         0.2227346510E-03      0.8280003079E-03

    ------------------------------------------------
       NWT REQUIRED           10 OUTER ITERATIONS 
       AND A TOTAL OF         16 INNER ITERATIONS.
    ------------------------------------------------

 NO OUTPUT CONTROL FOR STRESS PERIOD    2   TIME STEP   16
 
 SOLVING FOR HEAD 
                                                   Max.-Head-Change                         Max.-Flux-Residual
  Residual-Control   Outer-Iter.   Inner-Iter.     Column Row Layer    Maximum-Head-Change  Column Row Layer    Maximum-Flux-Residual          L2-NORM 
          0                 1           2             6    3     1       0.1226622010E-01       5    4    1         0.3599999486E+00      0.1899737469E+01
          0                 2           2             6    3     1       0.5467585236E-02       6    3    1         0.1429981275E+00      0.5798610246E+00
          0                 3           2             6    3     1       0.2434907203E-02       6    3    1         0.6371935431E-01      0.2358220548E+00
          0                 4           2             6    3     1       0.1083950614E-02       6    3    1         0.2837273912E-01      0.1037180391E+00
          0                 5           2             6    3     1       0.4824696267E-03       6    3    1         0.1263005682E-01      0.4623438251E-01
          0                 6           2             6    3     1       0.2147338241E-03       6    3    1         0.5621549321E-02      0.2065385725E-01
          0                 7           1             6    3     1       0.9556864682E-04       6    3    1         0.2501969259E-02      0.9230066040E-02
          0                 8           1             6    3     1       0.4253248678E-04       6    3    1         0.1113510937E-02      0.4125352901E-02
          0                 9           1             6    3     1       0.1892862073E-04       6    3    1         0.4955622492E-03      0.1843961780E-02
          0                10           1             6    3     1       0.8423860618E-05       6    3    1         0.2205439546E-03      0.8242789144E-03

    ------------------------------------------------
       NWT REQUIRED           10 OUTER ITERATIONS 
       AND A TOTAL OF         16 INNER ITERATIONS.
    ------------------------------------------------

 NO OUTPUT CONTROL FOR STRESS PERIOD    2   TIME STEP   17
 
 SOLVING FOR HEAD 
                                                   Max.-Head-Change                         Max.-Flux-Residual
  Residual-Control   Outer-Iter.   Inner-Iter.     Column Row Layer    Maximum-Head-Change  Column Row Layer    Maximum-Flux-Residual          L2-NORM 
          0                 1           2             6    3     1       0.1214676036E-01       5    4    1         0.3567306873E+00      0.1894248523E+01
          0                 2           2             6    3     1       0.5414460300E-02       6    3    1         0.1416070753E+00      0.5774366248E+00
          0                 3           2             6    3     1       0.2411249068E-02       6    3    1         0.6310039879E-01      0.2347185901E+00
          0                 4           2             6    3     1       0.1073410217E-02       6    3    1         0.2809704722E-01      0.1032283063E+00
          0                 5           2             6    3     1       0.4777730870E-03       6    3    1         0.1250722082E-01      0.4601839963E-01
          0                 6           2             6    3     1       0.2126412076E-03       6    3    1         0.5566816086E-02      0.2055871302E-01
          0                 7           1             6    3     1       0.9463631026E-04       6    3    1         0.2477582189E-02      0.9188160456E-02
          0                 8           1             6    3     1       0.4211713062E-04       6    3    1         0.1102645761E-02      0.4106894731E-02
          0                 9           1             6    3     1       0.1874359508E-04       6    3    1         0.4907218814E-03      0.1835831409E-02
          0                10           1             6    3     1       0.8341445402E-05       6    3    1         0.2183877837E-03      0.8206975307E-03

    ------------------------------------------------
       NWT REQUIRED           10 OUTER ITERATIONS 
       AND A TOTAL OF         16 INNER ITERATIONS.
    ------------------------------------------------

 NO OUTPUT CONTROL FOR STRESS PERIOD    2   TIME STEP   18
 
 SOLVING FOR HEAD 
                                                   Max.-Head-Change                         Max.-Flux-Residual
  Residual-Control   Outer-Iter.   Inner-Iter.     Column Row Layer    Maximum-Head-Change  Column Row Layer    Maximum-Flux-Residual          L2-NORM 
          0                 1           2             6    3     1       0.1202925278E-01       5    4    1         0.3536841015E+00      0.1888584988E+01
          0                 2           2             6    3     1       0.5362203334E-02       6    3    1         0.1402387242E+00      0.5750472301E+00
          0                 3           2             6    3     1       0.2387978988E-02       6    3    1         0.6249155860E-01      0.2336406537E+00
          0                 4           2             6    3     1       0.1063043629E-02       6    3    1         0.2782588113E-01      0.1027496234E+00
          0                 5           2             6    3     1       0.4731544313E-03       6    3    1         0.1238641238E-01      0.4580690509E-01
          0                 6           2             6    3     1       0.2105834917E-03       6    3    1         0.5512991458E-02      0.2046536141E-01
          0                 7           1             6    3     1       0.9371960939E-04       6    3    1         0.2453602255E-02      0.9146960074E-02
          0                 8           1             6    3     1       0.4170877795E-04       6    3    1         0.1091962980E-02      0.4088707202E-02
          0                 9           1             6    3     1       0.1856170520E-04       6    3    1         0.4859632076E-03      0.1827802317E-02
          0                10           1             6    3     1       0.8260434561E-05       6    3    1         0.2162681974E-03      0.8171531224E-03

    ------------------------------------------------
       NWT REQUIRED           10 OUTER ITERATIONS 
       AND A TOTAL OF         16 INNER ITERATIONS.
    ------------------------------------------------

 NO OUTPUT CONTROL FOR STRESS PERIOD    2   TIME STEP   19
 
 SOLVING FOR HEAD 
                                                   Max.-Head-Change                         Max.-Flux-Residual
  Residual-Control   Outer-Iter.   Inner-Iter.     Column Row Layer    Maximum-Head-Change  Column Row Layer    Maximum-Flux-Residual          L2-NORM 
          0                 1           2             6    3     1       0.1191348967E-01       5    4    1         0.3508482927E+00      0.1883934952E+01
          0                 2           2             6    3     1       0.5310722172E-02       6    3    1         0.1388906591E+00      0.5727941906E+00
          0                 3           2             6    3     1       0.2365055879E-02       6    3    1         0.6189176004E-01      0.2325943426E+00
          0                 4           2             6    3     1       0.1052832508E-02       6    3    1         0.2755876193E-01      0.1022826634E+00
          0                 5           2             6    3     1       0.4686054718E-03       6    3    1         0.1226741770E-01      0.4559999092E-01
          0                 6           2             6    3     1       0.2085570208E-03       6    3    1         0.5459979983E-02      0.2037381776E-01
          0                 7           1             6    3     1       0.9281691474E-04       6    3    1         0.2429986863E-02      0.9106468157E-02
          0                 8           1             6    3     1       0.4130670206E-04       6    3    1         0.1081443594E-02      0.4070797516E-02
          0                 9           1             6    3     1       0.1838262820E-04       6    3    1         0.4812777599E-03      0.1819880405E-02
          0                10           1             7    3     1       0.8186373179E-05       6    3    1         0.2141814174E-03      0.8136485524E-03

    ------------------------------------------------
       NWT REQUIRED           10 OUTER ITERATIONS 
       AND A TOTAL OF         16 INNER ITERATIONS.
    ------------------------------------------------

 NO OUTPUT CONTROL FOR STRESS PERIOD    2   TIME STEP   20
 
 SOLVING FOR HEAD 
                                                   Max.-Head-Change                         Max.-Flux-Residual
  Residual-Control   Outer-Iter.   Inner-Iter.     Column Row Layer    Maximum-Head-Change  Column Row Layer    Maximum-Flux-Residual          L2-NORM 
          0                 1           2             6    3     1       0.1179958879E-01       5    4    1         0.3481999846E+00      0.1879814756E+01
          0                 2           2             6    3     1       0.5260069132E-02       6    3    1         0.1375642531E+00      0.5706813669E+00
          0                 3           2             6    3     1       0.2342502915E-02       6    3    1         0.6130161236E-01      0.2315804154E+00
          0                 4           2             6    3     1       0.1042787112E-02       6    3    1         0.2729595939E-01      0.1018297909E+00
          0                 5           2             6    3     1       0.4641307428E-03       6    3    1         0.1215035612E-01      0.4540115440E-01
          0                 6           2             6    3     1       0.2065637979E-03       6    3    1         0.5407834419E-02      0.2028675359E-01
          0                 7           1             6    3     1       0.9192910970E-04       6    3    1         0.2406759328E-02      0.9068361490E-02
          0                 8           1             6    3     1       0.4091129251E-04       6    3    1         0.1071097901E-02      0.4054120489E-02
          0                 9           1             7    3     1       0.1821012974E-04       6    3    1         0.4766700734E-03      0.1812581732E-02
          0                10           1             7    3     1       0.8141356193E-05       7    3    1         0.2123508761E-03      0.8104536836E-03

    ------------------------------------------------
       NWT REQUIRED           10 OUTER ITERATIONS 
       AND A TOTAL OF         16 INNER ITERATIONS.
    ------------------------------------------------

 NO OUTPUT CONTROL FOR STRESS PERIOD    2   TIME STEP   21
 
 SOLVING FOR HEAD 
                                                   Max.-Head-Change                         Max.-Flux-Residual
  Residual-Control   Outer-Iter.   Inner-Iter.     Column Row Layer    Maximum-Head-Change  Column Row Layer    Maximum-Flux-Residual          L2-NORM 
          0                 1           2             6    3     1       0.1168750712E-01       5    4    1         0.3457368051E+00      0.1876422275E+01
          0                 2           2             6    3     1       0.5210225802E-02       6    3    1         0.1362590109E+00      0.5686414405E+00
          0                 3           2             6    3     1       0.2320312084E-02       6    3    1         0.6072090238E-01      0.2305960068E+00
          0                 4           2             6    3     1       0.1032903925E-02       6    3    1         0.2703738051E-01      0.1013876724E+00
          0                 5           2             6    3     1       0.4597286987E-03       6    3    1         0.1203518682E-01      0.4520540500E-01
          0                 6           2             6    3     1       0.2046031427E-03       6    3    1         0.5356536794E-02      0.2020028701E-01
          0                 7           1             6    3     1       0.9105589339E-04       6    3    1         0.2383911705E-02      0.9030178454E-02
          0                 8           1             6    3     1       0.4052241661E-04       6    3    1         0.1060922388E-02      0.4037257513E-02
          0                 9           1             7    3     1       0.1811031280E-04       7    3    1         0.4723609951E-03      0.1805133826E-02
          0                10           1             7    3     1       0.8096815793E-05       7    3    1         0.2111873132E-03      0.8071637390E-03

    ------------------------------------------------
       NWT REQUIRED           10 OUTER ITERATIONS 
       AND A TOTAL OF         16 INNER ITERATIONS.
    ------------------------------------------------

 NO OUTPUT CONTROL FOR STRESS PERIOD    2   TIME STEP   22
 
 SOLVING FOR HEAD 
                                                   Max.-Head-Change                         Max.-Flux-Residual
  Residual-Control   Outer-Iter.   Inner-Iter.     Column Row Layer    Maximum-Head-Change  Column Row Layer    Maximum-Flux-Residual          L2-NORM 
          0                 1           2             6    3     1       0.1157704401E-01       5    4    1         0.3434440530E+00      0.1873518958E+01
          0                 2           2             6    3     1       0.5161102967E-02       6    3    1         0.1349725979E+00      0.5667293802E+00
          0                 3           2             6    3     1       0.2298443567E-02       6    3    1         0.6014859049E-01      0.2296405527E+00
          0                 4           2             6    3     1       0.1023165155E-02       6    3    1         0.2678256104E-01      0.1009559290E+00
          0                 5           2             6    3     1       0.4553913873E-03       6    3    1         0.1192170232E-01      0.4501403199E-01
          0                 6           2             6    3     1       0.2026715016E-03       6    3    1         0.5305994390E-02      0.2011572661E-01
          0                 7           1             6    3     1       0.9019567860E-04       6    3    1         0.2361402568E-02      0.8992827863E-02
          0                 8           1             7    3     1       0.4028541013E-04       6    3    1         0.1050898550E-02      0.4020759367E-02
          0                 9           1             7    3     1       0.1801140363E-04       7    3    1         0.4697770602E-03      0.1797845539E-02
          0                10           1             7    3     1       0.8052680073E-05       7    3    1         0.2100343338E-03      0.8039434219E-03

    ------------------------------------------------
       NWT REQUIRED           10 OUTER ITERATIONS 
       AND A TOTAL OF         16 INNER ITERATIONS.
    ------------------------------------------------

 NO OUTPUT CONTROL FOR STRESS PERIOD    2   TIME STEP   23
 
 SOLVING FOR HEAD 
                                                   Max.-Head-Change                         Max.-Flux-Residual
  Residual-Control   Outer-Iter.   Inner-Iter.     Column Row Layer    Maximum-Head-Change  Column Row Layer    Maximum-Flux-Residual          L2-NORM 
          0                 1           2             6    3     1       0.1146832280E-01       5    4    1         0.3412958056E+00      0.1871472634E+01
          0                 2           2             6    3     1       0.5112720425E-02       6    3    1         0.1337064495E+00      0.5648740780E+00
          0                 3           2             6    3     1       0.2276880798E-02       6    3    1         0.5958481568E-01      0.2286960353E+00
          0                 4           2             6    3     1       0.1013548786E-02       6    3    1         0.2653125070E-01      0.1005277928E+00
          0                 5           2             6    3     1       0.4511010410E-03       6    3    1         0.1180961349E-01      0.4482381002E-01
          0                 6           2             6    3     1       0.2007567897E-03       6    3    1         0.5255982578E-02      0.2003148672E-01
          0                 7           1             6    3     1       0.8934095625E-04       6    3    1         0.2339081957E-02      0.8955544547E-02
          0                 8           1             7    3     1       0.3979306104E-04       6    3    1         0.1040934217E-02      0.4004259950E-02
          0                 9           1             7    3     1       0.1777857376E-04       7    3    1         0.4639737565E-03      0.1790545393E-02
          0                10           1             7    3     1       0.7943058403E-05       7    3    1         0.2072923199E-03      0.8007132622E-03

    ------------------------------------------------
       NWT REQUIRED           10 OUTER ITERATIONS 
       AND A TOTAL OF         16 INNER ITERATIONS.
    ------------------------------------------------

 NO OUTPUT CONTROL FOR STRESS PERIOD    2   TIME STEP   24
 
 SOLVING FOR HEAD 
                                                   Max.-Head-Change                         Max.-Flux-Residual
  Residual-Control   Outer-Iter.   Inner-Iter.     Column Row Layer    Maximum-Head-Change  Column Row Layer    Maximum-Flux-Residual          L2-NORM 
          0                 1           2             6    3     1       0.1136114579E-01       5    4    1         0.3392868724E+00      0.1868714985E+01
          0                 2           2             6    3     1       0.5065041952E-02       6    3    1         0.1324580823E+00      0.5630647145E+00
          0                 3           2             6    3     1       0.2255652273E-02       6    3    1         0.5902930938E-01      0.2277844559E+00
          0                 4           2             6    3     1       0.1004094141E-02       6    3    1         0.2628388298E-01      0.1001151012E+00
          0                 5           2             6    3     1       0.4468899678E-03       6    3    1         0.1169943811E-01      0.4464080586E-01
          0                 6           2             6    3     1       0.1988812588E-03       6    3    1         0.5206910609E-02      0.1995060879E-01
          0                 7           1             7    3     1       0.8853009887E-04       6    3    1         0.2317226435E-02      0.8919816018E-02
          0                 8           1             7    3     1       0.3955423939E-04       7    3    1         0.1032236827E-02      0.3988476416E-02
          0                 9           1             7    3     1       0.1767242388E-04       7    3    1         0.4611918484E-03      0.1783570859E-02
          0                10           1             7    3     1       0.7895874204E-05       7    3    1         0.2060558159E-03      0.7976316853E-03

    ------------------------------------------------
       NWT REQUIRED           10 OUTER ITERATIONS 
       AND A TOTAL OF         16 INNER ITERATIONS.
    ------------------------------------------------

 NO OUTPUT CONTROL FOR STRESS PERIOD    2   TIME STEP   25
 
 SOLVING FOR HEAD 
                                                   Max.-Head-Change                         Max.-Flux-Residual
  Residual-Control   Outer-Iter.   Inner-Iter.     Column Row Layer    Maximum-Head-Change  Column Row Layer    Maximum-Flux-Residual          L2-NORM 
          0                 1           2             6    3     1       0.1125556203E-01       5    4    1         0.3374124365E+00      0.1867215716E+01
          0                 2           2             6    3     1       0.5018064545E-02       6    3    1         0.1312283104E+00      0.5613727211E+00
          0                 3           2             6    3     1       0.2234731627E-02       6    3    1         0.5848194734E-01      0.2268953067E+00
          0                 4           2             6    3     1       0.9947749179E-03       6    3    1         0.2604009408E-01      0.9971084834E-01
          0                 5           2             6    3     1       0.4427384939E-03       6    3    1         0.1159083725E-01      0.4446144750E-01
          0                 6           2             6    3     1       0.1970319621E-03       6    3    1         0.5158531643E-02      0.1987133017E-01
          0                 7           1             7    3     1       0.8794670561E-04       6    3    1         0.2295675967E-02      0.8884791495E-02
          0                 8           1             7    3     1       0.3929513348E-04       7    3    1         0.1025442115E-02      0.3973002387E-02
          0                 9           1             7    3     1       0.1755733654E-04       7    3    1         0.4581740206E-03      0.1776733180E-02
          0                10           1             7    3     1       0.7844752258E-05       7    3    1         0.2047153743E-03      0.7946117553E-03

    ------------------------------------------------
       NWT REQUIRED           10 OUTER ITERATIONS 
       AND A TOTAL OF         16 INNER ITERATIONS.
    ------------------------------------------------

 NO OUTPUT CONTROL FOR STRESS PERIOD    2   TIME STEP   26
 
 SOLVING FOR HEAD 
                                                   Max.-Head-Change                         Max.-Flux-Residual
  Residual-Control   Outer-Iter.   Inner-Iter.     Column Row Layer    Maximum-Head-Change  Column Row Layer    Maximum-Flux-Residual          L2-NORM 
          0                 1           2             6    3     1       0.1115136412E-01       5    4    1         0.3356559181E+00      0.1865889869E+01
          0                 2           2             6    3     1       0.4971706890E-02       6    3    1         0.1300146764E+00      0.5597331477E+00
          0                 3           2             6    3     1       0.2214089362E-02       6    3    1         0.5794181498E-01      0.2260275781E+00
          0                 4           2             6    3     1       0.9855809029E-03       6    3    1         0.2579955453E-01      0.9931589937E-01
          0                 5           2             6    3     1       0.4386433454E-03       6    3    1         0.1148369808E-01      0.4428615835E-01
          0                 6           2             7    3     1       0.1955458491E-03       6    3    1         0.5110810207E-02      0.1979383476E-01
          0                 7           1             7    3     1       0.8737438852E-04       7    3    1         0.2280043909E-02      0.8850546158E-02
          0                 8           1             7    3     1       0.3904092024E-04       7    3    1         0.1018776273E-02      0.3957869411E-02
          0                 9           1             7    3     1       0.1744441140E-04       7    3    1         0.4552131276E-03      0.1770044891E-02
          0                10           1             7    3     1       0.7794585485E-05       7    3    1         0.2034000832E-03      0.7916537058E-03

    ------------------------------------------------
       NWT REQUIRED           10 OUTER ITERATIONS 
       AND A TOTAL OF         16 INNER ITERATIONS.
    ------------------------------------------------

 NO OUTPUT CONTROL FOR STRESS PERIOD    2   TIME STEP   27
 
 SOLVING FOR HEAD 
                                                   Max.-Head-Change                         Max.-Flux-Residual
  Residual-Control   Outer-Iter.   Inner-Iter.     Column Row Layer    Maximum-Head-Change  Column Row Layer    Maximum-Flux-Residual          L2-NORM 
          0                 1           2             6    3     1       0.1104884937E-01       5    4    1         0.3340143386E+00      0.1864254406E+01
          0                 2           2             6    3     1       0.4926099112E-02       6    3    1         0.1288206351E+00      0.5580990640E+00
          0                 3           2             6    3     1       0.2193782356E-02       6    3    1         0.5741042363E-01      0.2251776598E+00
          0                 4           2             6    3     1       0.9765369443E-03       6    3    1         0.2556292485E-01      0.9892975771E-01
          0                 5           2             7    3     1       0.4347783986E-03       6    3    1         0.1137830915E-01      0.4411478317E-01
          0                 6           2             7    3     1       0.1942765170E-03       7    3    1         0.5069506354E-02      0.1971805545E-01
          0                 7           1             7    3     1       0.8681058995E-04       7    3    1         0.2265259942E-02      0.8817053544E-02
          0                 8           1             7    3     1       0.3879047955E-04       7    3    1         0.1012209597E-02      0.3943065744E-02
          0                 9           1             7    3     1       0.1733315788E-04       7    3    1         0.4522961719E-03      0.1763501113E-02
          0                10           1             7    3     1       0.7745159916E-05       7    3    1         0.2021042605E-03      0.7887613644E-03

    ------------------------------------------------
       NWT REQUIRED           10 OUTER ITERATIONS 
       AND A TOTAL OF         16 INNER ITERATIONS.
    ------------------------------------------------

 NO OUTPUT CONTROL FOR STRESS PERIOD    2   TIME STEP   28
 
 SOLVING FOR HEAD 
                                                   Max.-Head-Change                         Max.-Flux-Residual
  Residual-Control   Outer-Iter.   Inner-Iter.     Column Row Layer    Maximum-Head-Change  Column Row Layer    Maximum-Flux-Residual          L2-NORM 
          0                 1           2             6    3     1       0.1094766612E-01       5    4    1         0.3324725792E+00      0.1863044285E+01
          0                 2           2             6    3     1       0.4881086088E-02       6    3    1         0.1276420971E+00      0.5565477339E+00
          0                 3           2             6    3     1       0.2173742107E-02       6    3    1         0.5688596875E-01      0.2243501670E+00
          0                 4           2             6    3     1       0.9676127777E-03       6    3    1         0.2532940796E-01      0.9855247648E-01
          0                 5           2             7    3     1       0.4319682440E-03       6    3    1         0.1127431829E-01      0.4394723862E-01
          0                 6           2             7    3     1       0.1930283036E-03       7    3    1         0.5036776215E-02      0.1964395131E-01
          0                 7           1             7    3     1       0.8625611916E-04       7    3    1         0.2250721687E-02      0.8784295500E-02
          0                 8           1             7    3     1       0.3854416044E-04       7    3    1         0.1005751457E-02      0.3928583961E-02
          0                 9           1             7    3     1       0.1722372455E-04       7    3    1         0.4494271475E-03      0.1757098563E-02
          0                10           1             7    3     1       0.7696538079E-05       7    3    1         0.2008296123E-03      0.7859296642E-03

    ------------------------------------------------
       NWT REQUIRED           10 OUTER ITERATIONS 
       AND A TOTAL OF         16 INNER ITERATIONS.
    ------------------------------------------------

 NO OUTPUT CONTROL FOR STRESS PERIOD    2   TIME STEP   29
 
 SOLVING FOR HEAD 
                                                   Max.-Head-Change                         Max.-Flux-Residual
  Residual-Control   Outer-Iter.   Inner-Iter.     Column Row Layer    Maximum-Head-Change  Column Row Layer    Maximum-Flux-Residual          L2-NORM 
          0                 1           2             6    3     1       0.1084795289E-01       5    4    1         0.3310228733E+00      0.1862199134E+01
          0                 2           2             6    3     1       0.4836729128E-02       6    3    1         0.1264806754E+00      0.5550563242E+00
          0                 3           2             6    3     1       0.2153995725E-02       6    3    1         0.5636916386E-01      0.2235427378E+00
          0                 4           2             7    3     1       0.9604441718E-03       6    3    1         0.2509931938E-01      0.9818373339E-01
          0                 5           2             7    3     1       0.4291986718E-03       7    3    1         0.1119891826E-01      0.4378342447E-01
          0                 6           2             7    3     1       0.1917980409E-03       7    3    1         0.5004518390E-02      0.1957148167E-01
          0                 7           1             7    3     1       0.8570958988E-04       7    3    1         0.2236392360E-02      0.8752253154E-02
          0                 8           1             7    3     1       0.3830135426E-04       7    3    1         0.9993857431E-03      0.3914416955E-02
          0                 9           1             7    3     1       0.1711584628E-04       7    3    1         0.4465990266E-03      0.1750833235E-02
          0                10           1             7    3     1       0.7648604298E-05       7    3    1         0.1995730605E-03      0.7831590285E-03

    ------------------------------------------------
       NWT REQUIRED           10 OUTER ITERATIONS 
       AND A TOTAL OF         16 INNER ITERATIONS.
    ------------------------------------------------

 NO OUTPUT CONTROL FOR STRESS PERIOD    2   TIME STEP   30



 STREAM LISTING     PERIOD      2   STEP       30

 LAYER ROW COL. STREAM  RCH.  FLOW INTO     FLOW TO   FLOW OUT OF   OVRLND.     DIRECT     STREAM       STREAM     STREAM     STREAM   STREAMBED  STREAMBED
                SEG.NO.  NO.  STRM. RCH.    AQUIFER    STRM. RCH.    RUNOFF     PRECIP       ET          HEAD       DEPTH      WIDTH   CONDCTNC.   GRADIENT

   1    1    1     1     1    2.2000E+01  2.3088E-09   2.2000E+01  0.000E+00  0.000E+00  0.000E+00  1.09418E+03  1.132E+00  1.242E+01  5.588E-10  1.377E+00
   1    2    2     1     2    2.2000E+01  3.5866E-09   2.2000E+01  0.000E+00  0.000E+00  0.000E+00  1.08919E+03  1.131E+00  1.240E+01  8.683E-10  1.377E+00
   1    3    3     1     3    2.2000E+01  3.0759E-09   2.2000E+01  0.000E+00  0.000E+00  0.000E+00  1.08355E+03  1.131E+00  1.241E+01  7.446E-10  1.377E+00
   1    3    4     1     4    2.2000E+01  2.8459E-09   2.2000E+01  0.000E+00  0.000E+00  0.000E+00  1.07854E+03  1.131E+00  1.241E+01  6.889E-10  1.377E+00
   1    4    5     2     1    2.0000E+01  3.1600E-01   1.9684E+01  0.000E+00  0.000E+00  0.000E+00  1.07299E+03  1.051E+00  1.200E+01  7.800E-02  1.350E+00
   1    5    6     2     2    1.9684E+01  2.4254E-01   1.9441E+01  0.000E+00  0.000E+00  0.000E+00  1.06755E+03  1.042E+00  1.200E+01  6.000E-02  1.347E+00
   1    6    6     2     3    1.9441E+01  2.4207E-01   1.9199E+01  0.000E+00  0.000E+00  0.000E+00  1.06283E+03  1.035E+00  1.200E+01  6.000E-02  1.345E+00
   1    7    6     2     4    1.9199E+01  2.4161E-01   1.8958E+01  0.000E+00  0.000E+00  0.000E+00  1.05810E+03  1.027E+00  1.200E+01  6.000E-02  1.342E+00
   1    8    6     2     5    1.8958E+01  2.4114E-01   1.8717E+01  0.000E+00  0.000E+00  0.000E+00  1.05338E+03  1.019E+00  1.200E+01  6.000E-02  1.340E+00
   1    3    5     3     1    2.0000E+00  2.8252E-01   1.7175E+00  0.000E+00  0.000E+00  0.000E+00  1.07555E+03  1.909E+00  9.636E+00  7.227E-02  1.955E+00
   1    3    6     3     2    1.7175E+00  2.4905E-01   1.4684E+00  0.000E+00  0.000E+00  0.000E+00  1.07264E+03  1.727E+00  8.909E+00  6.682E-02  1.864E+00
   1    3    7     3     3    1.4684E+00  1.9718E-01   1.2712E+00  0.000E+00  0.000E+00  0.000E+00  1.06987E+03  1.555E+00  8.218E+00  5.547E-02  1.777E+00
   1    4    8     3     4    1.2712E+00  2.2567E-01   1.0456E+00  0.000E+00  0.000E+00  0.000E+00  1.06682E+03  1.364E+00  7.455E+00  6.709E-02  1.682E+00
   1    5    8     3     5    1.0456E+00  1.5790E-01   8.8768E-01  0.000E+00  0.000E+00  0.000E+00  1.06362E+03  1.164E+00  6.655E+00  4.991E-02  1.582E+00
   1    6    8     3     6    8.8768E-01  5.5980E-02   8.3170E-01  0.000E+00  0.000E+00  0.000E+00  1.06158E+03  1.036E+00  6.145E+00  1.844E-02  1.518E+00
   1    5   10     4     1    1.0000E+01  9.0919E-02   9.9091E+00  0.000E+00  0.000E+00  0.000E+00  1.07836E+03  6.368E-01  1.000E+01  2.500E-02  1.212E+00
   1    5    9     4     2    9.9091E+00  1.8158E-01   9.7275E+00  0.000E+00  0.000E+00  0.000E+00  1.07154E+03  6.315E-01  1.000E+01  5.000E-02  1.211E+00
   1    6    8     4     3    9.7275E+00  1.2689E-01   9.6006E+00  0.000E+00  0.000E+00  0.000E+00  1.06381E+03  6.256E-01  1.000E+01  3.500E-02  1.209E+00
   1    6    8     5     1    1.0432E+01  2.2686E-09   1.0432E+01  0.000E+00  0.000E+00  0.000E+00  1.05868E+03  6.790E-01  1.542E+01  6.166E-10  1.226E+00
   1    7    7     5     2    1.0432E+01  2.8306E-09   1.0432E+01  0.000E+00  0.000E+00  0.000E+00  1.05418E+03  6.784E-01  1.539E+01  7.695E-10  1.226E+00
   1    8    7     5     3    1.0432E+01  1.9868E-09   1.0432E+01  0.000E+00  0.000E+00  0.000E+00  1.04993E+03  6.794E-01  1.543E+01  5.400E-10  1.226E+00
   1    8    6     5     4    1.0432E+01  1.4217E-09   1.0432E+01  0.000E+00  0.000E+00  0.000E+00  1.04693E+03  6.800E-01  1.545E+01  3.863E-10  1.227E+00
   1    9    6     6     1    2.9149E+01  2.6012E-01   2.8889E+01  0.000E+00  0.000E+00  0.000E+00  1.04406E+03  1.335E+00  1.200E+01  6.000E-02  1.445E+00
   1   10    7     6     2    2.8889E+01  2.5969E-01   2.8629E+01  0.000E+00  0.000E+00  0.000E+00  1.03951E+03  1.328E+00  1.200E+01  6.000E-02  1.443E+00
   1   11    7     6     3    2.8629E+01  2.5925E-01   2.8370E+01  0.000E+00  0.000E+00  0.000E+00  1.03496E+03  1.321E+00  1.200E+01  6.000E-02  1.440E+00
   1   12    7     6     4    2.8370E+01  2.5882E-01   2.8111E+01  0.000E+00  0.000E+00  0.000E+00  1.03040E+03  1.314E+00  1.200E+01  6.000E-02  1.438E+00
   1   13    7     6     5    2.8111E+01  1.0341E-01   2.8008E+01  0.000E+00  0.000E+00  0.000E+00  1.02722E+03  1.309E+00  1.200E+01  2.400E-02  1.436E+00
   1   14    9     7     1    1.5000E+02  2.9539E-08   1.5000E+02  0.000E+00  0.000E+00  0.000E+00  1.03986E+03  2.283E+00  5.528E+01  5.591E-09  1.761E+00
   1   13    8     7     2    1.5000E+02  3.2486E-14   1.5000E+02  0.000E+00  0.000E+00  0.000E+00  1.03478E+03  2.283E+00  5.527E+01  6.150E-15  1.761E+00
   1   13    7     7     3    1.5000E+02  2.9539E-08   1.5000E+02  0.000E+00  0.000E+00  0.000E+00  1.02970E+03  2.283E+00  5.528E+01  5.591E-09  1.761E+00
   1   13    6     8     1    1.7801E+02  2.6533E-11   1.7801E+02  0.000E+00  0.000E+00  0.000E+00  1.02487E+03  2.995E+00  4.343E+01  4.426E-12  1.998E+00
   1   13    5     8     2    1.7801E+02  0.0000E+00   1.7801E+02  0.000E+00  0.000E+00  0.000E+00  1.01863E+03  3.004E+00  4.355E+01  0.000E+00  2.001E+00
   1   13    4     8     3    1.7801E+02  2.4430E-10   1.7801E+02  0.000E+00  0.000E+00  0.000E+00  1.01237E+03  2.996E+00  4.344E+01  4.427E-11  1.840E+00
   1   13    3     8     4    1.7801E+02  7.0079E-08   1.7801E+02  0.000E+00  0.000E+00  0.000E+00  1.00613E+03  3.001E+00  4.352E+01  4.435E-08  5.267E-01
   1   13    2     8     5    1.7801E+02 -1.1131E+00   1.7912E+02  0.000E+00  0.000E+00  0.000E+00  9.99882E+02  3.007E+00  4.360E+01  4.443E+00 -8.350E-02
   1   13    1     8     6    1.7912E+02 -1.7468E+00   1.8087E+02  0.000E+00  0.000E+00  0.000E+00  9.94891E+02  3.016E+00  4.373E+01  2.674E+00 -2.178E-01
   1    6    8     9     1    0.0000E+00  0.0000E+00   0.0000E+00  0.000E+00  0.000E+00  0.000E+00  1.07850E+03  0.000E+00  4.000E+00  0.000E+00  1.000E+00





UNSATURATED ZONE PACKAGE VOLUMETRIC BUDGET FOR  TIME STEP    30 STRESS PERIOD    2
  ------------------------------------------------------------------------------



     CUMULATIVE VOLUMES      L**3       RATES FOR THIS TIME STEP      L**3/T
     ------------------                 ------------------------

           IN:                                      IN:
           ---                                      ---
        INFILTRATION =     4454460.0000          INFILTRATION =           0.8475

          OUT:                                     OUT:
          ----                                     ----
              UZF ET =      752292.2661                UZF ET =           0.2861
        UZF RECHARGE =    79618940.9663          UZF RECHARGE =          28.9291

            IN - OUT =   -75916773.2324              IN - OUT =         -28.3678

          STORAGE:                                 STORAGE:
          --------                                 --------
      STORAGE CHANGE =   -75916123.1568        STORAGE CHANGE =         -28.3678

 PERCENT DISCREPANCY IS DIFFERENCE BETWEEN IN-OUT MINUS CHANGE IN STORAGE
 DIVIDED BY THE AVERAGE OF IN AND OUT TIMES 100

 PERCENT DISCREPANCY =          -0.00     PERCENT DISCREPANCY =          -0.00






1
  VOLUMETRIC BUDGET FOR ENTIRE MODEL AT END OF TIME STEP   30, STRESS PERIOD   2
  ------------------------------------------------------------------------------

     CUMULATIVE VOLUMES      L**3       RATES FOR THIS TIME STEP      L**3/T
     ------------------                 ------------------------

           IN:                                      IN:
           ---                                      ---
             STORAGE =           0.0000               STORAGE =           0.0000
       CONSTANT HEAD =           0.0000         CONSTANT HEAD =           0.0000
               WELLS =           0.0000                 WELLS =           0.0000
     HEAD DEP BOUNDS =     5616499.5000       HEAD DEP BOUNDS =           1.0655
      STREAM LEAKAGE =    14084455.0000        STREAM LEAKAGE =           3.9923
        UZF RECHARGE =    79618936.0000          UZF RECHARGE =          28.9291
               GW ET =           0.0000                 GW ET =           0.0000
     SURFACE LEAKAGE =           0.0000       SURFACE LEAKAGE =           0.0000

            TOTAL IN =    99319888.0000              TOTAL IN =          33.9870

          OUT:                                     OUT:
          ----                                     ----
             STORAGE =    83493352.0000               STORAGE =          30.8339
       CONSTANT HEAD =           0.0000         CONSTANT HEAD =           0.0000
               WELLS =           0.0000                 WELLS =           0.0000
     HEAD DEP BOUNDS =     1480623.6250       HEAD DEP BOUNDS =           0.2867
      STREAM LEAKAGE =    12357855.0000        STREAM LEAKAGE =           2.8599
        UZF RECHARGE =           0.0000          UZF RECHARGE =           0.0000
               GW ET =     1980827.6250                 GW ET =       3.8569E-03
     SURFACE LEAKAGE =           0.0000       SURFACE LEAKAGE =           0.0000

           TOTAL OUT =    99312656.0000             TOTAL OUT =          33.9844

            IN - OUT =        7232.0000              IN - OUT =       2.6169E-03

 PERCENT DISCREPANCY =           0.01     PERCENT DISCREPANCY =           0.01






         TIME SUMMARY AT END OF TIME STEP   30 IN STRESS PERIOD    2
                    SECONDS     MINUTES      HOURS       DAYS        YEARS
                    -----------------------------------------------------------
   TIME STEP LENGTH  87600.      1460.0      24.333      1.0139     2.77588E-03
 STRESS PERIOD TIME 2.62800E+06  43800.      730.00      30.417     8.32763E-02
         TOTAL TIME 5.25600E+06  87600.      1460.0      60.833     0.16655    
1
1
                            STRESS PERIOD NO.    3, LENGTH =   2628000.    
                            -----------------------------------------------

                              NUMBER OF TIME STEPS =    30

                               MULTIPLIER FOR DELT =     1.000

                            INITIAL TIME STEP SIZE =   87600.00    

 WELL NO.  LAYER   ROW   COL   STRESS RATE         
 --------------------------------------------------
      1      1      6      4       0.000    
      2      1      6      7       0.000    
      3      1      7      4       0.000    
      4      1      7      5       0.000    
      5      1      8      4       0.000    
      6      1      8      5       0.000    
      7      1      9      4       0.000    
      8      1      9      5       0.000    
      9      1     10      4       0.000    
     10      1     10      5       0.000    

     10 WELLS

 REUSING NON-PARAMETER GHB CELLS FROM LAST STRESS PERIOD

      2 GHB CELLS

 REUSING STREAM SEGMENT DATA FROM LAST STRESS PERIOD



            AREAL INFILTRATION RATE
 READING ON UNIT   19 WITH FORMAT: (10F4.0)            

            1           2           3           4           5           6           7           8           9          10
 ........................................................................................................................
   1   1.0000E-10  2.0000E-10   0.000       0.000       0.000       0.000       0.000       0.000       0.000       0.000    
   2   2.0000E-10  1.0000E-10  2.0000E-10   0.000       0.000      8.0000E-10  8.0000E-10  5.0000E-10   0.000       0.000    
   3    0.000      5.0000E-10  1.0000E-10  1.0000E-10  8.0000E-10  8.0000E-10  5.0000E-10  5.0000E-10   0.000       0.000    
   4   8.0000E-10  5.0000E-10  1.0000E-10  1.0000E-10  1.0000E-10  1.0000E-10  1.0000E-10  1.0000E-10  2.0000E-10   0.000    
   5   8.0000E-10  5.0000E-10  1.0000E-10  1.0000E-10  1.0000E-10  1.0000E-10  1.0000E-10  1.0000E-10  1.0000E-10  1.0000E-10
   6   8.0000E-10  5.0000E-10  5.0000E-10  2.0000E-10  2.0000E-10  1.0000E-10  1.0000E-10  1.0000E-10  1.0000E-10  5.0000E-10
   7   8.0000E-10  5.0000E-10  5.0000E-10  2.0000E-10  2.0000E-10  1.0000E-10  1.0000E-10  2.0000E-10  2.0000E-10   0.000    
   8    0.000      5.0000E-10  5.0000E-10  2.0000E-10  2.0000E-10  1.0000E-10  1.0000E-10  2.0000E-10  5.0000E-10   0.000    
   9    0.000      5.0000E-10  5.0000E-10  2.0000E-10  2.0000E-10  1.0000E-10  1.0000E-10  2.0000E-10  5.0000E-10   0.000    
  10    0.000      5.0000E-10  5.0000E-10  2.0000E-10  2.0000E-10  1.0000E-10  1.0000E-10  2.0000E-10  5.0000E-10  8.0000E-10
  11    0.000      1.0000E-10  1.0000E-10  1.0000E-10  1.0000E-10  1.0000E-10  1.0000E-10  2.0000E-10  5.0000E-10   0.000    
  12   1.0000E-10  1.0000E-10  1.0000E-10  1.0000E-10  1.0000E-10  1.0000E-10  1.0000E-10  1.0000E-10  2.0000E-10   0.000    
  13   1.0000E-10  1.0000E-10  2.0000E-10  2.0000E-10  2.0000E-10  2.0000E-10  2.0000E-10  1.0000E-10  1.0000E-10   0.000    
  14    0.000      2.0000E-10  5.0000E-10  5.0000E-10  5.0000E-10  5.0000E-10  5.0000E-10  2.0000E-10  1.0000E-10   0.000    
  15    0.000       0.000      8.0000E-10  8.0000E-10  8.0000E-10  8.0000E-10   0.000       0.000       0.000       0.000    

                  ET RATE =  1.000000E-10

 USING ET EXTINCTION DEPTH FROM PREVIOUS STRESS PERIOD. CURRENT PERIOD IS:       3

 USING EXTINCTION WATER CONTENT FROM PREVIOUS STRESS PERIOD. CURRENT PERIOD IS:       3
 
 SOLVING FOR HEAD 
                                                   Max.-Head-Change                         Max.-Flux-Residual
  Residual-Control   Outer-Iter.   Inner-Iter.     Column Row Layer    Maximum-Head-Change  Column Row Layer    Maximum-Flux-Residual          L2-NORM 
          0                 1           2             6    3     1       0.1074995133E-01       2   13    1         0.5552643171E+00      0.2001749295E+01
          0                 2           2             6    3     1       0.4793196370E-02       6    3    1         0.1253394637E+00      0.5655258067E+00
          0                 3           2             7    3     1       0.2135471140E-02       6    3    1         0.5586209888E-01      0.2235738195E+00
          0                 4           2             7    3     1       0.9543266566E-03       7    3    1         0.2490007602E-01      0.9790317225E-01
          0                 5           2             7    3     1       0.4264813707E-03       7    3    1         0.1112766680E-01      0.4364201457E-01
          0                 6           2             7    3     1       0.1905909786E-03       7    3    1         0.4972869258E-02      0.1950793626E-01
          0                 7           1             7    3     1       0.8517336069E-04       7    3    1         0.2222333214E-02      0.8724098178E-02
          0                 8           1             7    3     1       0.3806312212E-04       7    3    1         0.9931399803E-03      0.3901964371E-02
          0                 9           1             7    3     1       0.1700999891E-04       7    3    1         0.4438241651E-03      0.1745327457E-02
          0                10           1             7    3     1       0.7601573292E-05       7    3    1         0.1983401698E-03      0.7807236678E-03

    ------------------------------------------------
       NWT REQUIRED           10 OUTER ITERATIONS 
       AND A TOTAL OF         16 INNER ITERATIONS.
    ------------------------------------------------

 OUTPUT CONTROL FOR STRESS PERIOD    3   TIME STEP    1
    PRINT BUDGET
    SAVE BUDGET
 UBUDSV SAVING "         STORAGE" ON UNIT102 AT TIME STEP     1, STRESS PERIOD    3
 UBUDSV SAVING "   CONSTANT HEAD" ON UNIT102 AT TIME STEP     1, STRESS PERIOD    3
 UBUDSV SAVING "FLOW RIGHT FACE " ON UNIT102 AT TIME STEP     1, STRESS PERIOD    3
 UBUDSV SAVING "FLOW FRONT FACE " ON UNIT102 AT TIME STEP     1, STRESS PERIOD    3

  HEAD DEP BOUNDS   PERIOD    3   STEP     1
 BOUNDARY      1   LAYER   1   ROW    13   COL     1   RATE   -0.286939    
 BOUNDARY      2   LAYER   1   ROW    14   COL     9   RATE     1.06540    



 STREAM LISTING     PERIOD      3   STEP        1

 LAYER ROW COL. STREAM  RCH.  FLOW INTO     FLOW TO   FLOW OUT OF   OVRLND.     DIRECT     STREAM       STREAM     STREAM     STREAM   STREAMBED  STREAMBED
                SEG.NO.  NO.  STRM. RCH.    AQUIFER    STRM. RCH.    RUNOFF     PRECIP       ET          HEAD       DEPTH      WIDTH   CONDCTNC.   GRADIENT

   1    1    1     1     1    4.1087E+01  3.0764E-10   4.1087E+01  0.000E+00  0.000E+00  0.000E+00  1.09439E+03  1.339E+00  1.576E+01  7.090E-11  1.446E+00
   1    2    2     1     2    4.1087E+01  4.7811E-10   4.1087E+01  0.000E+00  0.000E+00  0.000E+00  1.08940E+03  1.339E+00  1.574E+01  1.102E-10  1.446E+00
   1    3    3     1     3    4.1087E+01  4.0996E-10   4.1087E+01  0.000E+00  0.000E+00  0.000E+00  1.08376E+03  1.339E+00  1.575E+01  9.449E-11  1.446E+00
   1    3    4     1     4    4.1087E+01  3.7928E-10   4.1087E+01  0.000E+00  0.000E+00  0.000E+00  1.07875E+03  1.339E+00  1.575E+01  8.741E-11  1.446E+00
   1    4    5     2     1    3.9087E+01  3.5682E-01   3.8730E+01  0.000E+00  0.000E+00  0.000E+00  1.07351E+03  1.575E+00  1.200E+01  7.800E-02  1.525E+00
   1    5    6     2     2    3.8730E+01  2.7402E-01   3.8456E+01  0.000E+00  0.000E+00  0.000E+00  1.06808E+03  1.567E+00  1.200E+01  6.000E-02  1.522E+00
   1    6    6     2     3    3.8456E+01  2.7361E-01   3.8182E+01  0.000E+00  0.000E+00  0.000E+00  1.06335E+03  1.560E+00  1.200E+01  6.000E-02  1.520E+00
   1    7    6     2     4    3.8182E+01  2.7321E-01   3.7909E+01  0.000E+00  0.000E+00  0.000E+00  1.05863E+03  1.554E+00  1.200E+01  6.000E-02  1.518E+00
   1    8    6     2     5    3.7909E+01  2.7281E-01   3.7636E+01  0.000E+00  0.000E+00  0.000E+00  1.05391E+03  1.547E+00  1.200E+01  6.000E-02  1.516E+00
   1    3    5     3     1    2.0000E+00  2.8252E-01   1.7175E+00  0.000E+00  0.000E+00  0.000E+00  1.07555E+03  1.909E+00  9.636E+00  7.227E-02  1.955E+00
   1    3    6     3     2    1.7175E+00  2.4905E-01   1.4684E+00  0.000E+00  0.000E+00  0.000E+00  1.07264E+03  1.727E+00  8.909E+00  6.682E-02  1.864E+00
   1    3    7     3     3    1.4684E+00  1.9718E-01   1.2712E+00  0.000E+00  0.000E+00  0.000E+00  1.06987E+03  1.555E+00  8.218E+00  5.547E-02  1.777E+00
   1    4    8     3     4    1.2712E+00  2.2567E-01   1.0456E+00  0.000E+00  0.000E+00  0.000E+00  1.06682E+03  1.364E+00  7.455E+00  6.709E-02  1.682E+00
   1    5    8     3     5    1.0456E+00  1.5790E-01   8.8768E-01  0.000E+00  0.000E+00  0.000E+00  1.06362E+03  1.164E+00  6.655E+00  4.991E-02  1.582E+00
   1    6    8     3     6    8.8768E-01  5.5980E-02   8.3170E-01  0.000E+00  0.000E+00  0.000E+00  1.06158E+03  1.036E+00  6.145E+00  1.844E-02  1.518E+00
   1    5   10     4     1    1.0000E+01  9.0919E-02   9.9091E+00  0.000E+00  0.000E+00  0.000E+00  1.07836E+03  6.368E-01  1.000E+01  2.500E-02  1.212E+00
   1    5    9     4     2    9.9091E+00  1.8158E-01   9.7275E+00  0.000E+00  0.000E+00  0.000E+00  1.07154E+03  6.315E-01  1.000E+01  5.000E-02  1.211E+00
   1    6    8     4     3    9.7275E+00  1.2689E-01   9.6006E+00  0.000E+00  0.000E+00  0.000E+00  1.06381E+03  6.256E-01  1.000E+01  3.500E-02  1.209E+00
   1    6    8     5     1    1.0432E+01  2.2686E-09   1.0432E+01  0.000E+00  0.000E+00  0.000E+00  1.05868E+03  6.790E-01  1.542E+01  6.166E-10  1.226E+00
   1    7    7     5     2    1.0432E+01  2.8306E-09   1.0432E+01  0.000E+00  0.000E+00  0.000E+00  1.05418E+03  6.784E-01  1.539E+01  7.695E-10  1.226E+00
   1    8    7     5     3    1.0432E+01  1.9868E-09   1.0432E+01  0.000E+00  0.000E+00  0.000E+00  1.04993E+03  6.794E-01  1.543E+01  5.400E-10  1.226E+00
   1    8    6     5     4    1.0432E+01  1.4217E-09   1.0432E+01  0.000E+00  0.000E+00  0.000E+00  1.04693E+03  6.800E-01  1.545E+01  3.863E-10  1.227E+00
   1    9    6     6     1    4.8069E+01  2.8826E-01   4.7780E+01  0.000E+00  0.000E+00  0.000E+00  1.04453E+03  1.804E+00  1.200E+01  6.000E-02  1.601E+00
   1   10    7     6     2    4.7780E+01  2.8787E-01   4.7492E+01  0.000E+00  0.000E+00  0.000E+00  1.03998E+03  1.798E+00  1.200E+01  6.000E-02  1.599E+00
   1   11    7     6     3    4.7492E+01  2.8747E-01   4.7205E+01  0.000E+00  0.000E+00  0.000E+00  1.03543E+03  1.791E+00  1.200E+01  6.000E-02  1.597E+00
   1   12    7     6     4    4.7205E+01  2.8708E-01   4.6918E+01  0.000E+00  0.000E+00  0.000E+00  1.03088E+03  1.785E+00  1.200E+01  6.000E-02  1.595E+00
   1   13    7     6     5    4.6918E+01  1.1472E-01   4.6803E+01  0.000E+00  0.000E+00  0.000E+00  1.02769E+03  1.780E+00  1.200E+01  2.400E-02  1.593E+00
   1   14    9     7     1    1.5000E+02  2.9539E-08   1.5000E+02  0.000E+00  0.000E+00  0.000E+00  1.03986E+03  2.283E+00  5.528E+01  5.591E-09  1.761E+00
   1   13    8     7     2    1.5000E+02  3.2486E-14   1.5000E+02  0.000E+00  0.000E+00  0.000E+00  1.03478E+03  2.283E+00  5.527E+01  6.150E-15  1.761E+00
   1   13    7     7     3    1.5000E+02  2.9539E-08   1.5000E+02  0.000E+00  0.000E+00  0.000E+00  1.02970E+03  2.283E+00  5.528E+01  5.591E-09  1.761E+00
   1   13    6     8     1    1.9680E+02  2.8198E-30   1.9680E+02  0.000E+00  0.000E+00  0.000E+00  1.02499E+03  3.119E+00  4.522E+01  4.608E-31  2.040E+00
   1   13    5     8     2    1.9680E+02  2.8198E-30   1.9680E+02  0.000E+00  0.000E+00  0.000E+00  1.01874E+03  3.119E+00  4.522E+01  4.608E-31  2.040E+00
   1   13    4     8     3    1.9680E+02  2.5879E-10   1.9680E+02  0.000E+00  0.000E+00  0.000E+00  1.01249E+03  3.111E+00  4.511E+01  4.597E-11  1.877E+00
   1   13    3     8     4    1.9680E+02  7.7781E-10   1.9680E+02  0.000E+00  0.000E+00  0.000E+00  1.00624E+03  3.117E+00  4.519E+01  4.605E-10  5.630E-01
   1   13    2     8     5    1.9680E+02 -6.8423E-01   1.9749E+02  0.000E+00  0.000E+00  0.000E+00  9.99996E+02  3.121E+00  4.525E+01  4.611E+00 -4.946E-02
   1   13    1     8     6    1.9749E+02 -1.5212E+00   1.9901E+02  0.000E+00  0.000E+00  0.000E+00  9.95002E+02  3.127E+00  4.535E+01  2.773E+00 -1.829E-01
   1    6    8     9     1    0.0000E+00  0.0000E+00   0.0000E+00  0.000E+00  0.000E+00  0.000E+00  1.07850E+03  0.000E+00  4.000E+00  0.000E+00  1.000E+00



 UBDSV3 SAVING "     NETRECHARGE" ON UNIT 100 AT TIME STEP     1, STRESS PERIOD   3
 UBDSV3 SAVING "    NETDISCHARGE" ON UNIT 101 AT TIME STEP     1, STRESS PERIOD   3
 UBDSV3 SAVING "           GW ET" ON UNIT  61 AT TIME STEP     1, STRESS PERIOD   3
 UBDSV3 SAVING "    UZF RECHARGE" ON UNIT  61 AT TIME STEP     1, STRESS PERIOD   3
 UBDSV3 SAVING " SURFACE LEAKAGE" ON UNIT  61 AT TIME STEP     1, STRESS PERIOD   3
 UBDSV3 SAVING "       HORT+DUNN" ON UNIT  61 AT TIME STEP     1, STRESS PERIOD   3
 UBDSV3 SAVING "  STORAGE CHANGE" ON UNIT  61 AT TIME STEP     1, STRESS PERIOD   3


UNSATURATED ZONE PACKAGE VOLUMETRIC BUDGET FOR  TIME STEP     1 STRESS PERIOD    3
  ------------------------------------------------------------------------------



     CUMULATIVE VOLUMES      L**3       RATES FOR THIS TIME STEP      L**3/T
     ------------------                 ------------------------

           IN:                                      IN:
           ---                                      ---
        INFILTRATION =     4528701.0000          INFILTRATION =           0.8475

          OUT:                                     OUT:
          ----                                     ----
              UZF ET =      777357.9887                UZF ET =           0.2861
        UZF RECHARGE =    82178280.4048          UZF RECHARGE =          29.2162

            IN - OUT =   -78426937.3935              IN - OUT =         -28.6548

          STORAGE:                                 STORAGE:
          --------                                 --------
      STORAGE CHANGE =   -78426286.2374        STORAGE CHANGE =         -28.6548

 PERCENT DISCREPANCY IS DIFFERENCE BETWEEN IN-OUT MINUS CHANGE IN STORAGE
 DIVIDED BY THE AVERAGE OF IN AND OUT TIMES 100

 PERCENT DISCREPANCY =          -0.00     PERCENT DISCREPANCY =          -0.00






1
  VOLUMETRIC BUDGET FOR ENTIRE MODEL AT END OF TIME STEP    1, STRESS PERIOD   3
  ------------------------------------------------------------------------------

     CUMULATIVE VOLUMES      L**3       RATES FOR THIS TIME STEP      L**3/T
     ------------------                 ------------------------

           IN:                                      IN:
           ---                                      ---
             STORAGE =           0.0000               STORAGE =           0.0000
       CONSTANT HEAD =           0.0000         CONSTANT HEAD =           0.0000
               WELLS =           0.0000                 WELLS =           0.0000
     HEAD DEP BOUNDS =     5709828.0000       HEAD DEP BOUNDS =           1.0654
      STREAM LEAKAGE =    14459695.0000        STREAM LEAKAGE =           4.2836
        UZF RECHARGE =    82178272.0000          UZF RECHARGE =          29.2162
               GW ET =           0.0000                 GW ET =           0.0000
     SURFACE LEAKAGE =           0.0000       SURFACE LEAKAGE =           0.0000

            TOTAL IN =   102347792.0000              TOTAL IN =          34.5652

          OUT:                                     OUT:
          ----                                     ----
             STORAGE =    86302368.0000               STORAGE =          32.0664
       CONSTANT HEAD =           0.0000         CONSTANT HEAD =           0.0000
               WELLS =           0.0000                 WELLS =           0.0000
     HEAD DEP BOUNDS =     1505759.5000       HEAD DEP BOUNDS =           0.2869
      STREAM LEAKAGE =    12551048.0000        STREAM LEAKAGE =           2.2054
        UZF RECHARGE =           0.0000          UZF RECHARGE =           0.0000
               GW ET =     1981165.8750                 GW ET =       3.8616E-03
     SURFACE LEAKAGE =           0.0000       SURFACE LEAKAGE =           0.0000

           TOTAL OUT =   102340344.0000             TOTAL OUT =          34.5626

            IN - OUT =        7448.0000              IN - OUT =       2.6169E-03

 PERCENT DISCREPANCY =           0.01     PERCENT DISCREPANCY =           0.01






         TIME SUMMARY AT END OF TIME STEP    1 IN STRESS PERIOD    3
                    SECONDS     MINUTES      HOURS       DAYS        YEARS
                    -----------------------------------------------------------
   TIME STEP LENGTH  87600.      1460.0      24.333      1.0139     2.77588E-03
 STRESS PERIOD TIME  87600.      1460.0      24.333      1.0139     2.77588E-03
         TOTAL TIME 5.34360E+06  89060.      1484.3      61.847     0.16933    
1
 
 SOLVING FOR HEAD 
                                                   Max.-Head-Change                         Max.-Flux-Residual
  Residual-Control   Outer-Iter.   Inner-Iter.     Column Row Layer    Maximum-Head-Change  Column Row Layer    Maximum-Flux-Residual          L2-NORM 
          0                 1           2             6    3     1       0.1065342928E-01       2   13    1         0.5205028370E+00      0.1993418441E+01
          0                 2           2             6    3     1       0.4750304436E-02       6    3    1         0.1242155549E+00      0.5634748751E+00
          0                 3           2             7    3     1       0.2121923753E-02       7    3    1         0.5536302259E-01      0.2228105964E+00
          0                 4           2             7    3     1       0.9483089817E-03       7    3    1         0.2474228726E-01      0.9757219268E-01
          0                 5           2             7    3     1       0.4238081720E-03       7    3    1         0.1105757705E-01      0.4349579395E-01
          0                 6           2             7    3     1       0.1894033980E-03       7    3    1         0.4941733281E-02      0.1944327267E-01
          0                 7           1             7    3     1       0.8464573656E-04       7    3    1         0.2208500735E-02      0.8695502456E-02
          0                 8           1             7    3     1       0.3782869116E-04       7    3    1         0.9869943486E-03      0.3889317451E-02
          0                 9           1             7    3     1       0.1690583116E-04       7    3    1         0.4410935454E-03      0.1739733357E-02
          0                10           1             7    3     1       0.7555283865E-05       7    3    1         0.1971268239E-03      0.7782502772E-03

    ------------------------------------------------
       NWT REQUIRED           10 OUTER ITERATIONS 
       AND A TOTAL OF         16 INNER ITERATIONS.
    ------------------------------------------------

 NO OUTPUT CONTROL FOR STRESS PERIOD    3   TIME STEP    2
 
 SOLVING FOR HEAD 
                                                   Max.-Head-Change                         Max.-Flux-Residual
  Residual-Control   Outer-Iter.   Inner-Iter.     Column Row Layer    Maximum-Head-Change  Column Row Layer    Maximum-Flux-Residual          L2-NORM 
          0                 1           2             6    3     1       0.1055863472E-01       2   13    1         0.4664497555E+00      0.1975483391E+01
          0                 2           2             7    3     1       0.4717922385E-02       6    3    1         0.1231117295E+00      0.5608818191E+00
          0                 3           2             7    3     1       0.2108566255E-02       7    3    1         0.5501276589E-01      0.2220327106E+00
          0                 4           2             7    3     1       0.9423754975E-03       7    3    1         0.2458670941E-01      0.9724493277E-01
          0                 5           2             7    3     1       0.4211723032E-03       7    3    1         0.1098846754E-01      0.4335169931E-01
          0                 6           2             7    3     1       0.1882323705E-03       7    3    1         0.4911031951E-02      0.1937957013E-01
          0                 7           1             7    3     1       0.8412545369E-04       7    3    1         0.2194861001E-02      0.8667327691E-02
          0                 8           1             7    3     1       0.3759751652E-04       7    3    1         0.9809341975E-03      0.3876855372E-02
          0                 9           1             7    3     1       0.1680310743E-04       7    3    1         0.4384008297E-03      0.1734220528E-02
          0                10           1             7    3     1       0.7509635349E-05       7    3    1         0.1959302901E-03      0.7758103868E-03

    ------------------------------------------------
       NWT REQUIRED           10 OUTER ITERATIONS 
       AND A TOTAL OF         16 INNER ITERATIONS.
    ------------------------------------------------

 NO OUTPUT CONTROL FOR STRESS PERIOD    3   TIME STEP    3
 
 SOLVING FOR HEAD 
                                                   Max.-Head-Change                         Max.-Flux-Residual
  Residual-Control   Outer-Iter.   Inner-Iter.     Column Row Layer    Maximum-Head-Change  Column Row Layer    Maximum-Flux-Residual          L2-NORM 
          0                 1           2             7    3     1       0.1049000294E-01       2   13    1         0.4184352055E+00      0.1962748577E+01
          0                 2           2             7    3     1       0.4688408308E-02       7    3    1         0.1223178055E+00      0.5586899373E+00
          0                 3           2             7    3     1       0.2095455860E-02       7    3    1         0.5466900819E-01      0.2212859571E+00
          0                 4           2             7    3     1       0.9365513759E-03       7    3    1         0.2443400769E-01      0.9692400933E-01
          0                 5           2             7    3     1       0.4185848408E-03       7    3    1         0.1092063096E-01      0.4321005058E-01
          0                 6           2             7    3     1       0.1870827704E-03       7    3    1         0.4880894053E-02      0.1931691810E-01
          0                 7           1             7    3     1       0.8361465666E-04       7    3    1         0.2181470679E-02      0.8639611366E-02
          0                 8           1             7    3     1       0.3737054138E-04       7    3    1         0.9749844603E-03      0.3864593069E-02
          0                 9           1             7    3     1       0.1670224377E-04       7    3    1         0.4357570053E-03      0.1728795085E-02
          0                10           1             7    3     1       0.7464810072E-05       7    3    1         0.1947553995E-03      0.7734093667E-03

    ------------------------------------------------
       NWT REQUIRED           10 OUTER ITERATIONS 
       AND A TOTAL OF         16 INNER ITERATIONS.
    ------------------------------------------------

 NO OUTPUT CONTROL FOR STRESS PERIOD    3   TIME STEP    4
 
 SOLVING FOR HEAD 
                                                   Max.-Head-Change                         Max.-Flux-Residual
  Residual-Control   Outer-Iter.   Inner-Iter.     Column Row Layer    Maximum-Head-Change  Column Row Layer    Maximum-Flux-Residual          L2-NORM 
          0                 1           2             7    3     1       0.1042462487E-01       2   13    1         0.3758737174E+00      0.1952308250E+01
          0                 2           2             7    3     1       0.4659366678E-02       7    3    1         0.1215563291E+00      0.5567027873E+00
          0                 3           2             7    3     1       0.2082554520E-02       7    3    1         0.5433074928E-01      0.2205617318E+00
          0                 4           2             7    3     1       0.9308197670E-03       7    3    1         0.2428373917E-01      0.9660909497E-01
          0                 5           2             7    3     1       0.4160383214E-03       7    3    1         0.1085387117E-01      0.4307082133E-01
          0                 6           2             7    3     1       0.1859512921E-03       7    3    1         0.4851232715E-02      0.1925531330E-01
          0                 7           1             7    3     1       0.8311188156E-04       7    3    1         0.2168291294E-02      0.8612355333E-02
          0                 8           1             7    3     1       0.3714711781E-04       7    3    1         0.9691280973E-03      0.3852532542E-02
          0                 9           1             7    3     1       0.1660295169E-04       7    3    1         0.4331545105E-03      0.1723457554E-02
          0                10           1             7    3     1       0.7420680980E-05       7    3    1         0.1935988158E-03      0.7710473197E-03

    ------------------------------------------------
       NWT REQUIRED           10 OUTER ITERATIONS 
       AND A TOTAL OF         16 INNER ITERATIONS.
    ------------------------------------------------

 OUTPUT CONTROL FOR STRESS PERIOD    3   TIME STEP    5
    PRINT BUDGET
    SAVE BUDGET
 UBUDSV SAVING "         STORAGE" ON UNIT102 AT TIME STEP     5, STRESS PERIOD    3
 UBUDSV SAVING "   CONSTANT HEAD" ON UNIT102 AT TIME STEP     5, STRESS PERIOD    3
 UBUDSV SAVING "FLOW RIGHT FACE " ON UNIT102 AT TIME STEP     5, STRESS PERIOD    3
 UBUDSV SAVING "FLOW FRONT FACE " ON UNIT102 AT TIME STEP     5, STRESS PERIOD    3

  HEAD DEP BOUNDS   PERIOD    3   STEP     5
 BOUNDARY      1   LAYER   1   ROW    13   COL     1   RATE   -0.287816    
 BOUNDARY      2   LAYER   1   ROW    14   COL     9   RATE     1.06483    



 STREAM LISTING     PERIOD      3   STEP        5

 LAYER ROW COL. STREAM  RCH.  FLOW INTO     FLOW TO   FLOW OUT OF   OVRLND.     DIRECT     STREAM       STREAM     STREAM     STREAM   STREAMBED  STREAMBED
                SEG.NO.  NO.  STRM. RCH.    AQUIFER    STRM. RCH.    RUNOFF     PRECIP       ET          HEAD       DEPTH      WIDTH   CONDCTNC.   GRADIENT

   1    1    1     1     1    4.2000E+01  3.1070E-10   4.2000E+01  0.000E+00  0.000E+00  0.000E+00  1.09439E+03  1.346E+00  1.589E+01  7.149E-11  1.449E+00
   1    2    2     1     2    4.2000E+01  4.8286E-10   4.2000E+01  0.000E+00  0.000E+00  0.000E+00  1.08940E+03  1.345E+00  1.588E+01  1.111E-10  1.448E+00
   1    3    3     1     3    4.2000E+01  4.1403E-10   4.2000E+01  0.000E+00  0.000E+00  0.000E+00  1.08376E+03  1.345E+00  1.588E+01  9.528E-11  1.448E+00
   1    3    4     1     4    4.2000E+01  3.8304E-10   4.2000E+01  0.000E+00  0.000E+00  0.000E+00  1.07875E+03  1.346E+00  1.588E+01  8.815E-11  1.449E+00
   1    4    5     2     1    4.0000E+01  3.5854E-01   3.9641E+01  0.000E+00  0.000E+00  0.000E+00  1.07353E+03  1.597E+00  1.200E+01  7.800E-02  1.532E+00
   1    5    6     2     2    3.9641E+01  2.7534E-01   3.9366E+01  0.000E+00  0.000E+00  0.000E+00  1.06810E+03  1.589E+00  1.200E+01  6.000E-02  1.530E+00
   1    6    6     2     3    3.9366E+01  2.7494E-01   3.9091E+01  0.000E+00  0.000E+00  0.000E+00  1.06337E+03  1.582E+00  1.200E+01  6.000E-02  1.527E+00
   1    7    6     2     4    3.9091E+01  2.7454E-01   3.8817E+01  0.000E+00  0.000E+00  0.000E+00  1.05865E+03  1.576E+00  1.200E+01  6.000E-02  1.525E+00
   1    8    6     2     5    3.8817E+01  2.7414E-01   3.8542E+01  0.000E+00  0.000E+00  0.000E+00  1.05393E+03  1.569E+00  1.200E+01  6.000E-02  1.523E+00
   1    3    5     3     1    2.0000E+00  2.8252E-01   1.7175E+00  0.000E+00  0.000E+00  0.000E+00  1.07555E+03  1.909E+00  9.636E+00  7.227E-02  1.955E+00
   1    3    6     3     2    1.7175E+00  2.4905E-01   1.4684E+00  0.000E+00  0.000E+00  0.000E+00  1.07264E+03  1.727E+00  8.909E+00  6.682E-02  1.864E+00
   1    3    7     3     3    1.4684E+00  1.9718E-01   1.2712E+00  0.000E+00  0.000E+00  0.000E+00  1.06987E+03  1.555E+00  8.218E+00  5.547E-02  1.777E+00
   1    4    8     3     4    1.2712E+00  2.2567E-01   1.0456E+00  0.000E+00  0.000E+00  0.000E+00  1.06682E+03  1.364E+00  7.455E+00  6.709E-02  1.682E+00
   1    5    8     3     5    1.0456E+00  1.5790E-01   8.8768E-01  0.000E+00  0.000E+00  0.000E+00  1.06362E+03  1.164E+00  6.655E+00  4.991E-02  1.582E+00
   1    6    8     3     6    8.8768E-01  5.5980E-02   8.3170E-01  0.000E+00  0.000E+00  0.000E+00  1.06158E+03  1.036E+00  6.145E+00  1.844E-02  1.518E+00
   1    5   10     4     1    1.0000E+01  9.0919E-02   9.9091E+00  0.000E+00  0.000E+00  0.000E+00  1.07836E+03  6.368E-01  1.000E+01  2.500E-02  1.212E+00
   1    5    9     4     2    9.9091E+00  1.8158E-01   9.7275E+00  0.000E+00  0.000E+00  0.000E+00  1.07154E+03  6.315E-01  1.000E+01  5.000E-02  1.211E+00
   1    6    8     4     3    9.7275E+00  1.2689E-01   9.6006E+00  0.000E+00  0.000E+00  0.000E+00  1.06381E+03  6.256E-01  1.000E+01  3.500E-02  1.209E+00
   1    6    8     5     1    1.0432E+01  2.2686E-09   1.0432E+01  0.000E+00  0.000E+00  0.000E+00  1.05868E+03  6.790E-01  1.542E+01  6.166E-10  1.226E+00
   1    7    7     5     2    1.0432E+01  2.8306E-09   1.0432E+01  0.000E+00  0.000E+00  0.000E+00  1.05418E+03  6.784E-01  1.539E+01  7.695E-10  1.226E+00
   1    8    7     5     3    1.0432E+01  1.9868E-09   1.0432E+01  0.000E+00  0.000E+00  0.000E+00  1.04993E+03  6.794E-01  1.543E+01  5.400E-10  1.226E+00
   1    8    6     5     4    1.0432E+01  1.4217E-09   1.0432E+01  0.000E+00  0.000E+00  0.000E+00  1.04693E+03  6.800E-01  1.545E+01  3.863E-10  1.227E+00
   1    9    6     6     1    4.8975E+01  2.8948E-01   4.8685E+01  0.000E+00  0.000E+00  0.000E+00  1.04455E+03  1.825E+00  1.200E+01  6.000E-02  1.608E+00
   1   10    7     6     2    4.8685E+01  2.8909E-01   4.8396E+01  0.000E+00  0.000E+00  0.000E+00  1.04000E+03  1.818E+00  1.200E+01  6.000E-02  1.606E+00
   1   11    7     6     3    4.8396E+01  2.8870E-01   4.8108E+01  0.000E+00  0.000E+00  0.000E+00  1.03545E+03  1.812E+00  1.200E+01  6.000E-02  1.604E+00
   1   12    7     6     4    4.8108E+01  2.8831E-01   4.7819E+01  0.000E+00  0.000E+00  0.000E+00  1.03090E+03  1.805E+00  1.200E+01  6.000E-02  1.602E+00
   1   13    7     6     5    4.7819E+01  1.1521E-01   4.7704E+01  0.000E+00  0.000E+00  0.000E+00  1.02771E+03  1.801E+00  1.200E+01  2.400E-02  1.600E+00
   1   14    9     7     1    1.5000E+02  2.9539E-08   1.5000E+02  0.000E+00  0.000E+00  0.000E+00  1.03986E+03  2.283E+00  5.528E+01  5.591E-09  1.761E+00
   1   13    8     7     2    1.5000E+02  3.2486E-14   1.5000E+02  0.000E+00  0.000E+00  0.000E+00  1.03478E+03  2.283E+00  5.527E+01  6.150E-15  1.761E+00
   1   13    7     7     3    1.5000E+02  2.9539E-08   1.5000E+02  0.000E+00  0.000E+00  0.000E+00  1.02970E+03  2.283E+00  5.528E+01  5.591E-09  1.761E+00
   1   13    6     8     1    1.9770E+02  2.8271E-31   1.9770E+02  0.000E+00  0.000E+00  0.000E+00  1.02500E+03  3.124E+00  4.530E+01  4.616E-32  2.041E+00
   1   13    5     8     2    1.9770E+02  2.8157E-16   1.9770E+02  0.000E+00  0.000E+00  0.000E+00  1.01874E+03  3.116E+00  4.518E+01  4.604E-17  2.039E+00
   1   13    4     8     3    1.9770E+02  2.5961E-32   1.9770E+02  0.000E+00  0.000E+00  0.000E+00  1.01250E+03  3.124E+00  4.530E+01  4.616E-33  1.875E+00
   1   13    3     8     4    1.9770E+02  7.7009E-10   1.9770E+02  0.000E+00  0.000E+00  0.000E+00  1.00625E+03  3.122E+00  4.527E+01  4.613E-10  5.565E-01
   1   13    2     8     5    1.9770E+02 -8.3110E-01   1.9854E+02  0.000E+00  0.000E+00  0.000E+00  1.00000E+03  3.127E+00  4.534E+01  4.620E+00 -5.997E-02
   1   13    1     8     6    1.9854E+02 -1.5708E+00   2.0011E+02  0.000E+00  0.000E+00  0.000E+00  9.95009E+02  3.134E+00  4.544E+01  2.778E+00 -1.885E-01
   1    6    8     9     1    0.0000E+00  0.0000E+00   0.0000E+00  0.000E+00  0.000E+00  0.000E+00  1.07850E+03  0.000E+00  4.000E+00  0.000E+00  1.000E+00



 UBDSV3 SAVING "     NETRECHARGE" ON UNIT 100 AT TIME STEP     5, STRESS PERIOD   3
 UBDSV3 SAVING "    NETDISCHARGE" ON UNIT 101 AT TIME STEP     5, STRESS PERIOD   3
 UBDSV3 SAVING "           GW ET" ON UNIT  61 AT TIME STEP     5, STRESS PERIOD   3
 UBDSV3 SAVING "    UZF RECHARGE" ON UNIT  61 AT TIME STEP     5, STRESS PERIOD   3
 UBDSV3 SAVING " SURFACE LEAKAGE" ON UNIT  61 AT TIME STEP     5, STRESS PERIOD   3
 UBDSV3 SAVING "       HORT+DUNN" ON UNIT  61 AT TIME STEP     5, STRESS PERIOD   3
 UBDSV3 SAVING "  STORAGE CHANGE" ON UNIT  61 AT TIME STEP     5, STRESS PERIOD   3


UNSATURATED ZONE PACKAGE VOLUMETRIC BUDGET FOR  TIME STEP     5 STRESS PERIOD    3
  ------------------------------------------------------------------------------



     CUMULATIVE VOLUMES      L**3       RATES FOR THIS TIME STEP      L**3/T
     ------------------                 ------------------------

           IN:                                      IN:
           ---                                      ---
        INFILTRATION =     4825665.0000          INFILTRATION =           0.8475

          OUT:                                     OUT:
          ----                                     ----
              UZF ET =      877610.6795                UZF ET =           0.2861
        UZF RECHARGE =    92384130.8423          UZF RECHARGE =          29.0734

            IN - OUT =   -88436076.5218              IN - OUT =         -28.5120

          STORAGE:                                 STORAGE:
          --------                                 --------
      STORAGE CHANGE =   -88435421.5956        STORAGE CHANGE =         -28.5120

 PERCENT DISCREPANCY IS DIFFERENCE BETWEEN IN-OUT MINUS CHANGE IN STORAGE
 DIVIDED BY THE AVERAGE OF IN AND OUT TIMES 100

 PERCENT DISCREPANCY =          -0.00     PERCENT DISCREPANCY =          -0.00






1
  VOLUMETRIC BUDGET FOR ENTIRE MODEL AT END OF TIME STEP    5, STRESS PERIOD   3
  ------------------------------------------------------------------------------

     CUMULATIVE VOLUMES      L**3       RATES FOR THIS TIME STEP      L**3/T
     ------------------                 ------------------------

           IN:                                      IN:
           ---                                      ---
             STORAGE =           0.0000               STORAGE =           0.0000
       CONSTANT HEAD =           0.0000         CONSTANT HEAD =           0.0000
               WELLS =           0.0000                 WELLS =           0.0000
     HEAD DEP BOUNDS =     6083019.0000       HEAD DEP BOUNDS =           1.0648
      STREAM LEAKAGE =    15965011.0000        STREAM LEAKAGE =           4.2960
        UZF RECHARGE =    92384120.0000          UZF RECHARGE =          29.0734
               GW ET =           0.0000                 GW ET =           0.0000
     SURFACE LEAKAGE =           0.0000       SURFACE LEAKAGE =           0.0000

            TOTAL IN =   114432152.0000              TOTAL IN =          34.4342

          OUT:                                     OUT:
          ----                                     ----
             STORAGE =    97470056.0000               STORAGE =          31.7380
       CONSTANT HEAD =           0.0000         CONSTANT HEAD =           0.0000
               WELLS =           0.0000                 WELLS =           0.0000
     HEAD DEP BOUNDS =     1606501.7500       HEAD DEP BOUNDS =           0.2878
      STREAM LEAKAGE =    13364700.0000        STREAM LEAKAGE =           2.4019
        UZF RECHARGE =           0.0000          UZF RECHARGE =           0.0000
               GW ET =     1982529.2500                 GW ET =       3.9068E-03
     SURFACE LEAKAGE =           0.0000       SURFACE LEAKAGE =           0.0000

           TOTAL OUT =   114423792.0000             TOTAL OUT =          34.4316

            IN - OUT =        8360.0000              IN - OUT =       2.5749E-03

 PERCENT DISCREPANCY =           0.01     PERCENT DISCREPANCY =           0.01






         TIME SUMMARY AT END OF TIME STEP    5 IN STRESS PERIOD    3
                    SECONDS     MINUTES      HOURS       DAYS        YEARS
                    -----------------------------------------------------------
   TIME STEP LENGTH  87600.      1460.0      24.333      1.0139     2.77588E-03
 STRESS PERIOD TIME 4.38000E+05  7300.0      121.67      5.0694     1.38794E-02
         TOTAL TIME 5.69400E+06  94900.      1581.7      65.903     0.18043    
1
 
 SOLVING FOR HEAD 
                                                   Max.-Head-Change                         Max.-Flux-Residual
  Residual-Control   Outer-Iter.   Inner-Iter.     Column Row Layer    Maximum-Head-Change  Column Row Layer    Maximum-Flux-Residual          L2-NORM 
          0                 1           2             7    3     1       0.1036012594E-01       5    4    1         0.3571076869E+00      0.1943728797E+01
          0                 2           2             7    3     1       0.4630714232E-02       7    3    1         0.1208050858E+00      0.5548853872E+00
          0                 3           2             7    3     1       0.2069825477E-02       7    3    1         0.5399702047E-01      0.2198582612E+00
          0                 4           2             7    3     1       0.9251644425E-03       7    3    1         0.2413547620E-01      0.9630016875E-01
          0                 5           2             7    3     1       0.4135255805E-03       7    3    1         0.1078799936E-01      0.4293406005E-01
          0                 6           2             7    3     1       0.1848347728E-03       7    3    1         0.4821964581E-02      0.1919478375E-01
          0                 7           1             7    3     1       0.8261573141E-04       7    3    1         0.2155286035E-02      0.8585567983E-02
          0                 8           1             7    3     1       0.3692662817E-04       7    3    1         0.9633488521E-03      0.3840677002E-02
          0                 9           1             7    3     1       0.1650495993E-04       7    3    1         0.4305861822E-03      0.1718211026E-02
          0                10           1             7    3     1       0.7377127893E-05       7    3    1         0.1924573635E-03      0.7687243188E-03

    ------------------------------------------------
       NWT REQUIRED           10 OUTER ITERATIONS 
       AND A TOTAL OF         16 INNER ITERATIONS.
    ------------------------------------------------

 NO OUTPUT CONTROL FOR STRESS PERIOD    3   TIME STEP    6
 
 SOLVING FOR HEAD 
                                                   Max.-Head-Change                         Max.-Flux-Residual
  Residual-Control   Outer-Iter.   Inner-Iter.     Column Row Layer    Maximum-Head-Change  Column Row Layer    Maximum-Flux-Residual          L2-NORM 
          0                 1           2             7    3     1       0.1029680291E-01       5    4    1         0.3546406354E+00      0.1936659667E+01
          0                 2           2             7    3     1       0.4602582040E-02       7    3    1         0.1200675285E+00      0.5532083085E+00
          0                 3           2             7    3     1       0.2057326621E-02       7    3    1         0.5366934677E-01      0.2191732599E+00
          0                 4           2             7    3     1       0.9196109734E-03       7    3    1         0.2398989237E-01      0.9599693630E-01
          0                 5           2             7    3     1       0.4110579130E-03       7    3    1         0.1072331303E-01      0.4279965150E-01
          0                 6           2             7    3     1       0.1837382012E-03       7    3    1         0.4793221064E-02      0.1913527845E-01
          0                 7           1             7    3     1       0.8212841068E-04       7    3    1         0.2142512963E-02      0.8559229393E-02
          0                 8           1             7    3     1       0.3671004663E-04       7    3    1         0.9576723736E-03      0.3829017966E-02
          0                 9           1             7    3     1       0.1640869794E-04       7    3    1         0.4280633439E-03      0.1713048875E-02
          0                10           1             7    3     1       0.7334341147E-05       7    3    1         0.1913360551E-03      0.7664391955E-03

    ------------------------------------------------
       NWT REQUIRED           10 OUTER ITERATIONS 
       AND A TOTAL OF         16 INNER ITERATIONS.
    ------------------------------------------------

 NO OUTPUT CONTROL FOR STRESS PERIOD    3   TIME STEP    7
 
 SOLVING FOR HEAD 
                                                   Max.-Head-Change                         Max.-Flux-Residual
  Residual-Control   Outer-Iter.   Inner-Iter.     Column Row Layer    Maximum-Head-Change  Column Row Layer    Maximum-Flux-Residual          L2-NORM 
          0                 1           2             7    3     1       0.1023446387E-01       5    4    1         0.3523374877E+00      0.1930450427E+01
          0                 2           2             7    3     1       0.4574885267E-02       7    3    1         0.1193414239E+00      0.5515307831E+00
          0                 3           2             7    3     1       0.2045020452E-02       7    3    1         0.5334674095E-01      0.2184976141E+00
          0                 4           2             7    3     1       0.9141427821E-03       7    3    1         0.2384655127E-01      0.9569875054E-01
          0                 5           2             7    3     1       0.4086279913E-03       7    3    1         0.1065961931E-01      0.4266752455E-01
          0                 6           2             7    3     1       0.1826583383E-03       7    3    1         0.4764916897E-02      0.1907677100E-01
          0                 7           1             7    3     1       0.8164848648E-04       7    3    1         0.2129934379E-02      0.8533327905E-02
          0                 8           1             7    3     1       0.3649674068E-04       7    3    1         0.9520820084E-03      0.3817550560E-02
          0                 9           1             7    3     1       0.1631388685E-04       7    3    1         0.4255786341E-03      0.1707970989E-02
          0                10           1             7    3     1       0.7292196311E-05       7    3    1         0.1902316206E-03      0.7641910479E-03

    ------------------------------------------------
       NWT REQUIRED           10 OUTER ITERATIONS 
       AND A TOTAL OF         16 INNER ITERATIONS.
    ------------------------------------------------

 NO OUTPUT CONTROL FOR STRESS PERIOD    3   TIME STEP    8
 
 SOLVING FOR HEAD 
                                                   Max.-Head-Change                         Max.-Flux-Residual
  Residual-Control   Outer-Iter.   Inner-Iter.     Column Row Layer    Maximum-Head-Change  Column Row Layer    Maximum-Flux-Residual          L2-NORM 
          0                 1           2             7    3     1       0.1017308118E-01       5    4    1         0.3501791728E+00      0.1924610050E+01
          0                 2           2             7    3     1       0.4547611055E-02       7    3    1         0.1186264474E+00      0.5500333096E+00
          0                 3           2             7    3     1       0.2032901000E-02       7    3    1         0.5302905202E-01      0.2178437711E+00
          0                 4           2             7    3     1       0.9087571022E-03       7    3    1         0.2370538281E-01      0.9540599237E-01
          0                 5           2             7    3     1       0.4062345356E-03       7    3    1         0.1059688571E-01      0.4253754462E-01
          0                 6           2             7    3     1       0.1815945932E-03       7    3    1         0.4737037064E-02      0.1901919548E-01
          0                 7           1             7    3     1       0.8117568732E-04       7    3    1         0.2117543350E-02      0.8507833002E-02
          0                 8           1             7    3     1       0.3628658450E-04       7    3    1         0.9465745461E-03      0.3806260591E-02
          0                 9           1             7    3     1       0.1622046775E-04       7    3    1         0.4231305687E-03      0.1702971560E-02
          0                10           1             7    3     1       0.7250667123E-05       7    3    1         0.1891433931E-03      0.7619760950E-03

    ------------------------------------------------
       NWT REQUIRED           10 OUTER ITERATIONS 
       AND A TOTAL OF         16 INNER ITERATIONS.
    ------------------------------------------------

 NO OUTPUT CONTROL FOR STRESS PERIOD    3   TIME STEP    9
 
 SOLVING FOR HEAD 
                                                   Max.-Head-Change                         Max.-Flux-Residual
  Residual-Control   Outer-Iter.   Inner-Iter.     Column Row Layer    Maximum-Head-Change  Column Row Layer    Maximum-Flux-Residual          L2-NORM 
          0                 1           2             7    3     1       0.1011278970E-01       5    4    1         0.3481544366E+00      0.1920731525E+01
          0                 2           2             7    3     1       0.4520820495E-02       7    3    1         0.1179241753E+00      0.5486698710E+00
          0                 3           2             7    3     1       0.2020995927E-02       7    3    1         0.5271699408E-01      0.2172070210E+00
          0                 4           2             7    3     1       0.9034664534E-03       7    3    1         0.2356671033E-01      0.9511882597E-01
          0                 5           2             7    3     1       0.4038832091E-03       7    3    1         0.1053525855E-01      0.4240993349E-01
          0                 6           2             7    3     1       0.1805495263E-03       7    3    1         0.4709647744E-02      0.1896265457E-01
          0                 7           1             7    3     1       0.8071116971E-04       7    3    1         0.2105369796E-02      0.8482791593E-02
          0                 8           1             7    3     1       0.3608010033E-04       7    3    1         0.9411635136E-03      0.3795171335E-02
          0                 9           1             7    3     1       0.1612867787E-04       7    3    1         0.4207252712E-03      0.1698059329E-02
          0                10           1             7    3     1       0.7209860006E-05       7    3    1         0.1880741260E-03      0.7598004810E-03

    ------------------------------------------------
       NWT REQUIRED           10 OUTER ITERATIONS 
       AND A TOTAL OF         16 INNER ITERATIONS.
    ------------------------------------------------

 OUTPUT CONTROL FOR STRESS PERIOD    3   TIME STEP   10
    PRINT BUDGET
    SAVE BUDGET
 UBUDSV SAVING "         STORAGE" ON UNIT102 AT TIME STEP    10, STRESS PERIOD    3
 UBUDSV SAVING "   CONSTANT HEAD" ON UNIT102 AT TIME STEP    10, STRESS PERIOD    3
 UBUDSV SAVING "FLOW RIGHT FACE " ON UNIT102 AT TIME STEP    10, STRESS PERIOD    3
 UBUDSV SAVING "FLOW FRONT FACE " ON UNIT102 AT TIME STEP    10, STRESS PERIOD    3

  HEAD DEP BOUNDS   PERIOD    3   STEP    10
 BOUNDARY      1   LAYER   1   ROW    13   COL     1   RATE   -0.288639    
 BOUNDARY      2   LAYER   1   ROW    14   COL     9   RATE     1.06411    



 STREAM LISTING     PERIOD      3   STEP       10

 LAYER ROW COL. STREAM  RCH.  FLOW INTO     FLOW TO   FLOW OUT OF   OVRLND.     DIRECT     STREAM       STREAM     STREAM     STREAM   STREAMBED  STREAMBED
                SEG.NO.  NO.  STRM. RCH.    AQUIFER    STRM. RCH.    RUNOFF     PRECIP       ET          HEAD       DEPTH      WIDTH   CONDCTNC.   GRADIENT

   1    1    1     1     1    4.2000E+01  3.1070E-10   4.2000E+01  0.000E+00  0.000E+00  0.000E+00  1.09439E+03  1.346E+00  1.589E+01  7.149E-11  1.449E+00
   1    2    2     1     2    4.2000E+01  4.8286E-10   4.2000E+01  0.000E+00  0.000E+00  0.000E+00  1.08940E+03  1.345E+00  1.588E+01  1.111E-10  1.448E+00
   1    3    3     1     3    4.2000E+01  4.1403E-10   4.2000E+01  0.000E+00  0.000E+00  0.000E+00  1.08376E+03  1.345E+00  1.588E+01  9.528E-11  1.448E+00
   1    3    4     1     4    4.2000E+01  3.8304E-10   4.2000E+01  0.000E+00  0.000E+00  0.000E+00  1.07875E+03  1.346E+00  1.588E+01  8.815E-11  1.449E+00
   1    4    5     2     1    4.0000E+01  3.5854E-01   3.9641E+01  0.000E+00  0.000E+00  0.000E+00  1.07353E+03  1.597E+00  1.200E+01  7.800E-02  1.532E+00
   1    5    6     2     2    3.9641E+01  2.7534E-01   3.9366E+01  0.000E+00  0.000E+00  0.000E+00  1.06810E+03  1.589E+00  1.200E+01  6.000E-02  1.530E+00
   1    6    6     2     3    3.9366E+01  2.7494E-01   3.9091E+01  0.000E+00  0.000E+00  0.000E+00  1.06337E+03  1.582E+00  1.200E+01  6.000E-02  1.527E+00
   1    7    6     2     4    3.9091E+01  2.7454E-01   3.8817E+01  0.000E+00  0.000E+00  0.000E+00  1.05865E+03  1.576E+00  1.200E+01  6.000E-02  1.525E+00
   1    8    6     2     5    3.8817E+01  2.7414E-01   3.8542E+01  0.000E+00  0.000E+00  0.000E+00  1.05393E+03  1.569E+00  1.200E+01  6.000E-02  1.523E+00
   1    3    5     3     1    2.0000E+00  2.8252E-01   1.7175E+00  0.000E+00  0.000E+00  0.000E+00  1.07555E+03  1.909E+00  9.636E+00  7.227E-02  1.955E+00
   1    3    6     3     2    1.7175E+00  2.4905E-01   1.4684E+00  0.000E+00  0.000E+00  0.000E+00  1.07264E+03  1.727E+00  8.909E+00  6.682E-02  1.864E+00
   1    3    7     3     3    1.4684E+00  1.9718E-01   1.2712E+00  0.000E+00  0.000E+00  0.000E+00  1.06987E+03  1.555E+00  8.218E+00  5.547E-02  1.777E+00
   1    4    8     3     4    1.2712E+00  2.2567E-01   1.0456E+00  0.000E+00  0.000E+00  0.000E+00  1.06682E+03  1.364E+00  7.455E+00  6.709E-02  1.682E+00
   1    5    8     3     5    1.0456E+00  1.5790E-01   8.8768E-01  0.000E+00  0.000E+00  0.000E+00  1.06362E+03  1.164E+00  6.655E+00  4.991E-02  1.582E+00
   1    6    8     3     6    8.8768E-01  5.5980E-02   8.3170E-01  0.000E+00  0.000E+00  0.000E+00  1.06158E+03  1.036E+00  6.145E+00  1.844E-02  1.518E+00
   1    5   10     4     1    1.0000E+01  9.0919E-02   9.9091E+00  0.000E+00  0.000E+00  0.000E+00  1.07836E+03  6.368E-01  1.000E+01  2.500E-02  1.212E+00
   1    5    9     4     2    9.9091E+00  1.8158E-01   9.7275E+00  0.000E+00  0.000E+00  0.000E+00  1.07154E+03  6.315E-01  1.000E+01  5.000E-02  1.211E+00
   1    6    8     4     3    9.7275E+00  1.2689E-01   9.6006E+00  0.000E+00  0.000E+00  0.000E+00  1.06381E+03  6.256E-01  1.000E+01  3.500E-02  1.209E+00
   1    6    8     5     1    1.0432E+01  2.2686E-09   1.0432E+01  0.000E+00  0.000E+00  0.000E+00  1.05868E+03  6.790E-01  1.542E+01  6.166E-10  1.226E+00
   1    7    7     5     2    1.0432E+01  2.8306E-09   1.0432E+01  0.000E+00  0.000E+00  0.000E+00  1.05418E+03  6.784E-01  1.539E+01  7.695E-10  1.226E+00
   1    8    7     5     3    1.0432E+01  1.9868E-09   1.0432E+01  0.000E+00  0.000E+00  0.000E+00  1.04993E+03  6.794E-01  1.543E+01  5.400E-10  1.226E+00
   1    8    6     5     4    1.0432E+01  1.4217E-09   1.0432E+01  0.000E+00  0.000E+00  0.000E+00  1.04693E+03  6.800E-01  1.545E+01  3.863E-10  1.227E+00
   1    9    6     6     1    4.8975E+01  2.8948E-01   4.8685E+01  0.000E+00  0.000E+00  0.000E+00  1.04455E+03  1.825E+00  1.200E+01  6.000E-02  1.608E+00
   1   10    7     6     2    4.8685E+01  2.8909E-01   4.8396E+01  0.000E+00  0.000E+00  0.000E+00  1.04000E+03  1.818E+00  1.200E+01  6.000E-02  1.606E+00
   1   11    7     6     3    4.8396E+01  2.8870E-01   4.8108E+01  0.000E+00  0.000E+00  0.000E+00  1.03545E+03  1.812E+00  1.200E+01  6.000E-02  1.604E+00
   1   12    7     6     4    4.8108E+01  2.8831E-01   4.7819E+01  0.000E+00  0.000E+00  0.000E+00  1.03090E+03  1.805E+00  1.200E+01  6.000E-02  1.602E+00
   1   13    7     6     5    4.7819E+01  1.1521E-01   4.7704E+01  0.000E+00  0.000E+00  0.000E+00  1.02771E+03  1.801E+00  1.200E+01  2.400E-02  1.600E+00
   1   14    9     7     1    1.5000E+02  2.9539E-08   1.5000E+02  0.000E+00  0.000E+00  0.000E+00  1.03986E+03  2.283E+00  5.528E+01  5.591E-09  1.761E+00
   1   13    8     7     2    1.5000E+02  3.2486E-14   1.5000E+02  0.000E+00  0.000E+00  0.000E+00  1.03478E+03  2.283E+00  5.527E+01  6.150E-15  1.761E+00
   1   13    7     7     3    1.5000E+02  2.9539E-08   1.5000E+02  0.000E+00  0.000E+00  0.000E+00  1.02970E+03  2.283E+00  5.528E+01  5.591E-09  1.761E+00
   1   13    6     8     1    1.9770E+02  2.8271E-31   1.9770E+02  0.000E+00  0.000E+00  0.000E+00  1.02500E+03  3.124E+00  4.530E+01  4.616E-32  2.041E+00
   1   13    5     8     2    1.9770E+02  2.8157E-16   1.9770E+02  0.000E+00  0.000E+00  0.000E+00  1.01874E+03  3.116E+00  4.518E+01  4.604E-17  2.039E+00
   1   13    4     8     3    1.9770E+02  2.5754E-11   1.9770E+02  0.000E+00  0.000E+00  0.000E+00  1.01249E+03  3.117E+00  4.519E+01  4.605E-12  1.864E+00
   1   13    3     8     4    1.9770E+02  7.5589E-11   1.9770E+02  0.000E+00  0.000E+00  0.000E+00  1.00625E+03  3.122E+00  4.527E+01  4.613E-11  5.462E-01
   1   13    2     8     5    1.9770E+02 -9.6486E-01   1.9867E+02  0.000E+00  0.000E+00  0.000E+00  1.00000E+03  3.127E+00  4.534E+01  4.620E+00 -6.961E-02
   1   13    1     8     6    1.9867E+02 -1.6288E+00   2.0030E+02  0.000E+00  0.000E+00  0.000E+00  9.95010E+02  3.135E+00  4.545E+01  2.779E+00 -1.954E-01
   1    6    8     9     1    0.0000E+00  0.0000E+00   0.0000E+00  0.000E+00  0.000E+00  0.000E+00  1.07850E+03  0.000E+00  4.000E+00  0.000E+00  1.000E+00



 UBDSV3 SAVING "     NETRECHARGE" ON UNIT 100 AT TIME STEP    10, STRESS PERIOD   3
 UBDSV3 SAVING "    NETDISCHARGE" ON UNIT 101 AT TIME STEP    10, STRESS PERIOD   3
 UBDSV3 SAVING "           GW ET" ON UNIT  61 AT TIME STEP    10, STRESS PERIOD   3
 UBDSV3 SAVING "    UZF RECHARGE" ON UNIT  61 AT TIME STEP    10, STRESS PERIOD   3
 UBDSV3 SAVING " SURFACE LEAKAGE" ON UNIT  61 AT TIME STEP    10, STRESS PERIOD   3
 UBDSV3 SAVING "       HORT+DUNN" ON UNIT  61 AT TIME STEP    10, STRESS PERIOD   3
 UBDSV3 SAVING "  STORAGE CHANGE" ON UNIT  61 AT TIME STEP    10, STRESS PERIOD   3


UNSATURATED ZONE PACKAGE VOLUMETRIC BUDGET FOR  TIME STEP    10 STRESS PERIOD    3
  ------------------------------------------------------------------------------



     CUMULATIVE VOLUMES      L**3       RATES FOR THIS TIME STEP      L**3/T
     ------------------                 ------------------------

           IN:                                      IN:
           ---                                      ---
        INFILTRATION =     5196870.0000          INFILTRATION =           0.8475

          OUT:                                     OUT:
          ----                                     ----
              UZF ET =     1002907.6498                UZF ET =           0.2860
        UZF RECHARGE =   105077980.4951          UZF RECHARGE =          28.9202

            IN - OUT =  -100884018.1449              IN - OUT =         -28.3588

          STORAGE:                                 STORAGE:
          --------                                 --------
      STORAGE CHANGE =  -100883359.6554        STORAGE CHANGE =         -28.3588

 PERCENT DISCREPANCY IS DIFFERENCE BETWEEN IN-OUT MINUS CHANGE IN STORAGE
 DIVIDED BY THE AVERAGE OF IN AND OUT TIMES 100

 PERCENT DISCREPANCY =          -0.00     PERCENT DISCREPANCY =          -0.00






1
  VOLUMETRIC BUDGET FOR ENTIRE MODEL AT END OF TIME STEP   10, STRESS PERIOD   3
  ------------------------------------------------------------------------------

     CUMULATIVE VOLUMES      L**3       RATES FOR THIS TIME STEP      L**3/T
     ------------------                 ------------------------

           IN:                                      IN:
           ---                                      ---
             STORAGE =           0.0000               STORAGE =           0.0000
       CONSTANT HEAD =           0.0000         CONSTANT HEAD =           0.0000
               WELLS =           0.0000                 WELLS =           0.0000
     HEAD DEP BOUNDS =     6549226.0000       HEAD DEP BOUNDS =           1.0641
      STREAM LEAKAGE =    17846654.0000        STREAM LEAKAGE =           4.2960
        UZF RECHARGE =   105077968.0000          UZF RECHARGE =          28.9202
               GW ET =           0.0000                 GW ET =           0.0000
     SURFACE LEAKAGE =           0.0000       SURFACE LEAKAGE =           0.0000

            TOTAL IN =   129473848.0000              TOTAL IN =          34.2803

          OUT:                                     OUT:
          ----                                     ----
             STORAGE =   111277080.0000               STORAGE =          31.3916
       CONSTANT HEAD =           0.0000         CONSTANT HEAD =           0.0000
               WELLS =           0.0000                 WELLS =           0.0000
     HEAD DEP BOUNDS =     1732792.7500       HEAD DEP BOUNDS =           0.2886
      STREAM LEAKAGE =    14470244.0000        STREAM LEAKAGE =           2.5936
        UZF RECHARGE =           0.0000          UZF RECHARGE =           0.0000
               GW ET =     1984252.2500                 GW ET =       3.9502E-03
     SURFACE LEAKAGE =           0.0000       SURFACE LEAKAGE =           0.0000

           TOTAL OUT =   129464368.0000             TOTAL OUT =          34.2778

            IN - OUT =        9480.0000              IN - OUT =       2.5368E-03

 PERCENT DISCREPANCY =           0.01     PERCENT DISCREPANCY =           0.01






         TIME SUMMARY AT END OF TIME STEP   10 IN STRESS PERIOD    3
                    SECONDS     MINUTES      HOURS       DAYS        YEARS
                    -----------------------------------------------------------
   TIME STEP LENGTH  87600.      1460.0      24.333      1.0139     2.77588E-03
 STRESS PERIOD TIME 8.76000E+05  14600.      243.33      10.139     2.77588E-02
         TOTAL TIME 6.13200E+06 1.02200E+05  1703.3      70.972     0.19431    
1
 
 SOLVING FOR HEAD 
                                                   Max.-Head-Change                         Max.-Flux-Residual
  Residual-Control   Outer-Iter.   Inner-Iter.     Column Row Layer    Maximum-Head-Change  Column Row Layer    Maximum-Flux-Residual          L2-NORM 
          0                 1           2             7    3     1       0.1005324008E-01       5    4    1         0.3462527613E+00      0.1917497383E+01
          0                 2           2             7    3     1       0.4494357695E-02       7    3    1         0.1172305354E+00      0.5473751953E+00
          0                 3           2             7    3     1       0.2009235669E-02       7    3    1         0.5240874985E-01      0.2165838201E+00
          0                 4           2             7    3     1       0.8982397940E-03       7    3    1         0.2342972290E-01      0.9483666570E-01
          0                 5           2             7    3     1       0.4015601611E-03       7    3    1         0.1047437598E-01      0.4228447160E-01
          0                 6           2             7    3     1       0.1795169576E-03       7    3    1         0.4682587488E-02      0.1890705415E-01
          0                 7           1             7    3     1       0.8025217717E-04       7    3    1         0.2093341688E-02      0.8458162546E-02
          0                 8           1             7    3     1       0.3587605874E-04       7    3    1         0.9358167692E-03      0.3784261553E-02
          0                 9           1             7    3     1       0.1603796697E-04       7    3    1         0.4183483896E-03      0.1693226290E-02
          0                10           1             7    3     1       0.7169530975E-05       7    3    1         0.1870174332E-03      0.7576601546E-03

    ------------------------------------------------
       NWT REQUIRED           10 OUTER ITERATIONS 
       AND A TOTAL OF         16 INNER ITERATIONS.
    ------------------------------------------------

 NO OUTPUT CONTROL FOR STRESS PERIOD    3   TIME STEP   11
 
 SOLVING FOR HEAD 
                                                   Max.-Head-Change                         Max.-Flux-Residual
  Residual-Control   Outer-Iter.   Inner-Iter.     Column Row Layer    Maximum-Head-Change  Column Row Layer    Maximum-Flux-Residual          L2-NORM 
          0                 1           2             7    3     1       0.9994732123E-02       5    4    1         0.3444647634E+00      0.1914794201E+01
          0                 2           2             7    3     1       0.4468355959E-02       7    3    1         0.1165490200E+00      0.5461404576E+00
          0                 3           2             7    3     1       0.1997679501E-02       7    3    1         0.5210587227E-01      0.2159736090E+00
          0                 4           2             7    3     1       0.8931034836E-03       7    3    1         0.2329511104E-01      0.9455948122E-01
          0                 5           2             7    3     1       0.3992771121E-03       7    3    1         0.1041454507E-01      0.4216115961E-01
          0                 6           2             7    3     1       0.1785020998E-03       7    3    1         0.4655992838E-02      0.1885238994E-01
          0                 7           1             7    3     1       0.7980102687E-04       7    3    1         0.2081519733E-02      0.8433945527E-02
          0                 8           1             7    3     1       0.3567548981E-04       7    3    1         0.9305613136E-03      0.3773532192E-02
          0                 9           1             7    3     1       0.1594879476E-04       7    3    1         0.4160119391E-03      0.1688472898E-02
          0                10           1             7    3     1       0.7129882748E-05       7    3    1         0.1859786401E-03      0.7555525473E-03

    ------------------------------------------------
       NWT REQUIRED           10 OUTER ITERATIONS 
       AND A TOTAL OF         16 INNER ITERATIONS.
    ------------------------------------------------

 NO OUTPUT CONTROL FOR STRESS PERIOD    3   TIME STEP   12
 
 SOLVING FOR HEAD 
                                                   Max.-Head-Change                         Max.-Flux-Residual
  Residual-Control   Outer-Iter.   Inner-Iter.     Column Row Layer    Maximum-Head-Change  Column Row Layer    Maximum-Flux-Residual          L2-NORM 
          0                 1           2             7    3     1       0.9937077101E-02       6    4    1         0.3434601355E+00      0.1912529610E+01
          0                 2           2             7    3     1       0.4442731271E-02       7    3    1         0.1158774301E+00      0.5449584443E+00
          0                 3           2             7    3     1       0.1986290023E-02       7    3    1         0.5180738239E-01      0.2153760211E+00
          0                 4           2             7    3     1       0.8880408723E-03       7    3    1         0.2316243899E-01      0.9428725312E-01
          0                 5           2             7    3     1       0.3970266521E-03       7    3    1         0.1035557182E-01      0.4203998366E-01
          0                 6           2             7    3     1       0.1775016534E-03       7    3    1         0.4629777433E-02      0.1879867045E-01
          0                 7           1             7    3     1       0.7935625003E-04       7    3    1         0.2069865494E-02      0.8410141122E-02
          0                 8           1             7    3     1       0.3547774027E-04       7    3    1         0.9253800394E-03      0.3762984338E-02
          0                 9           1             7    3     1       0.1586086972E-04       7    3    1         0.4137083015E-03      0.1683798346E-02
          0                10           1             7    3     1       0.7090786640E-05       7    3    1         0.1849543642E-03      0.7534809426E-03

    ------------------------------------------------
       NWT REQUIRED           10 OUTER ITERATIONS 
       AND A TOTAL OF         16 INNER ITERATIONS.
    ------------------------------------------------

 NO OUTPUT CONTROL FOR STRESS PERIOD    3   TIME STEP   13
 
 SOLVING FOR HEAD 
                                                   Max.-Head-Change                         Max.-Flux-Residual
  Residual-Control   Outer-Iter.   Inner-Iter.     Column Row Layer    Maximum-Head-Change  Column Row Layer    Maximum-Flux-Residual          L2-NORM 
          0                 1           2             7    3     1       0.9880251959E-02       6    4    1         0.3445248071E+00      0.1910627169E+01
          0                 2           2             7    3     1       0.4417474105E-02       7    3    1         0.1152155006E+00      0.5438215763E+00
          0                 3           2             7    3     1       0.1975063316E-02       7    3    1         0.5151317077E-01      0.2147897465E+00
          0                 4           2             7    3     1       0.8830503560E-03       7    3    1         0.2303166175E-01      0.9401953086E-01
          0                 5           2             7    3     1       0.3948081276E-03       7    3    1         0.1029743785E-01      0.4192077091E-01
          0                 6           2             7    3     1       0.1765153543E-03       7    3    1         0.4603933804E-02      0.1874580688E-01
          0                 7           1             7    3     1       0.7891774147E-04       7    3    1         0.2058375959E-02      0.8386713200E-02
          0                 8           1             7    3     1       0.3528276833E-04       7    3    1         0.9202717377E-03      0.3752601472E-02
          0                 9           1             7    3     1       0.1577417498E-04       7    3    1         0.4114369945E-03      0.1679196930E-02
          0                10           1             7    3     1       0.7052235399E-05       7    3    1         0.1839444175E-03      0.7514411691E-03

    ------------------------------------------------
       NWT REQUIRED           10 OUTER ITERATIONS 
       AND A TOTAL OF         16 INNER ITERATIONS.
    ------------------------------------------------

 NO OUTPUT CONTROL FOR STRESS PERIOD    3   TIME STEP   14
 
 SOLVING FOR HEAD 
                                                   Max.-Head-Change                         Max.-Flux-Residual
  Residual-Control   Outer-Iter.   Inner-Iter.     Column Row Layer    Maximum-Head-Change  Column Row Layer    Maximum-Flux-Residual          L2-NORM 
          0                 1           2             7    3     1       0.9824395086E-02       6    4    1         0.3454907273E+00      0.1909021809E+01
          0                 2           2             7    3     1       0.4392645378E-02       7    3    1         0.1145648408E+00      0.5427255490E+00
          0                 3           2             7    3     1       0.1964026197E-02       7    3    1         0.5122394576E-01      0.2142151177E+00
          0                 4           2             7    3     1       0.8781437413E-03       7    3    1         0.2290309114E-01      0.9375677958E-01
          0                 5           2             7    3     1       0.3926267369E-03       7    3    1         0.1024028043E-01      0.4180381771E-01
          0                 6           2             7    3     1       0.1755454919E-03       7    3    1         0.4578522391E-02      0.1869398448E-01
          0                 7           1             7    3     1       0.7848650888E-04       7    3    1         0.2047077741E-02      0.8363766598E-02
          0                 8           1             7    3     1       0.3509101770E-04       7    3    1         0.9152481276E-03      0.3742442533E-02
          0                 9           1             7    3     1       0.1568890662E-04       7    3    1         0.4092031795E-03      0.1674699195E-02
          0                10           1             7    3     1       0.7014316064E-05       7    3    1         0.1829510686E-03      0.7494502123E-03

    ------------------------------------------------
       NWT REQUIRED           10 OUTER ITERATIONS 
       AND A TOTAL OF         16 INNER ITERATIONS.
    ------------------------------------------------

 OUTPUT CONTROL FOR STRESS PERIOD    3   TIME STEP   15
    PRINT BUDGET
    PRINT HEAD FOR ALL LAYERS
    SAVE HEAD FOR ALL LAYERS
    SAVE BUDGET
 UBUDSV SAVING "         STORAGE" ON UNIT102 AT TIME STEP    15, STRESS PERIOD    3
 UBUDSV SAVING "   CONSTANT HEAD" ON UNIT102 AT TIME STEP    15, STRESS PERIOD    3
 UBUDSV SAVING "FLOW RIGHT FACE " ON UNIT102 AT TIME STEP    15, STRESS PERIOD    3
 UBUDSV SAVING "FLOW FRONT FACE " ON UNIT102 AT TIME STEP    15, STRESS PERIOD    3

  HEAD DEP BOUNDS   PERIOD    3   STEP    15
 BOUNDARY      1   LAYER   1   ROW    13   COL     1   RATE   -0.289240    
 BOUNDARY      2   LAYER   1   ROW    14   COL     9   RATE     1.06339    



 STREAM LISTING     PERIOD      3   STEP       15

 LAYER ROW COL. STREAM  RCH.  FLOW INTO     FLOW TO   FLOW OUT OF   OVRLND.     DIRECT     STREAM       STREAM     STREAM     STREAM   STREAMBED  STREAMBED
                SEG.NO.  NO.  STRM. RCH.    AQUIFER    STRM. RCH.    RUNOFF     PRECIP       ET          HEAD       DEPTH      WIDTH   CONDCTNC.   GRADIENT

   1    1    1     1     1    4.2000E+01  3.1070E-10   4.2000E+01  0.000E+00  0.000E+00  0.000E+00  1.09439E+03  1.346E+00  1.589E+01  7.149E-11  1.449E+00
   1    2    2     1     2    4.2000E+01  4.8286E-10   4.2000E+01  0.000E+00  0.000E+00  0.000E+00  1.08940E+03  1.345E+00  1.588E+01  1.111E-10  1.448E+00
   1    3    3     1     3    4.2000E+01  4.1403E-10   4.2000E+01  0.000E+00  0.000E+00  0.000E+00  1.08376E+03  1.345E+00  1.588E+01  9.528E-11  1.448E+00
   1    3    4     1     4    4.2000E+01  3.8304E-10   4.2000E+01  0.000E+00  0.000E+00  0.000E+00  1.07875E+03  1.346E+00  1.588E+01  8.815E-11  1.449E+00
   1    4    5     2     1    4.0000E+01  3.5854E-01   3.9641E+01  0.000E+00  0.000E+00  0.000E+00  1.07353E+03  1.597E+00  1.200E+01  7.800E-02  1.532E+00
   1    5    6     2     2    3.9641E+01  2.7534E-01   3.9366E+01  0.000E+00  0.000E+00  0.000E+00  1.06810E+03  1.589E+00  1.200E+01  6.000E-02  1.530E+00
   1    6    6     2     3    3.9366E+01  2.7494E-01   3.9091E+01  0.000E+00  0.000E+00  0.000E+00  1.06337E+03  1.582E+00  1.200E+01  6.000E-02  1.527E+00
   1    7    6     2     4    3.9091E+01  2.7454E-01   3.8817E+01  0.000E+00  0.000E+00  0.000E+00  1.05865E+03  1.576E+00  1.200E+01  6.000E-02  1.525E+00
   1    8    6     2     5    3.8817E+01  2.7414E-01   3.8542E+01  0.000E+00  0.000E+00  0.000E+00  1.05393E+03  1.569E+00  1.200E+01  6.000E-02  1.523E+00
   1    3    5     3     1    2.0000E+00  2.8252E-01   1.7175E+00  0.000E+00  0.000E+00  0.000E+00  1.07555E+03  1.909E+00  9.636E+00  7.227E-02  1.955E+00
   1    3    6     3     2    1.7175E+00  2.4905E-01   1.4684E+00  0.000E+00  0.000E+00  0.000E+00  1.07264E+03  1.727E+00  8.909E+00  6.682E-02  1.864E+00
   1    3    7     3     3    1.4684E+00  1.9718E-01   1.2712E+00  0.000E+00  0.000E+00  0.000E+00  1.06987E+03  1.555E+00  8.218E+00  5.547E-02  1.777E+00
   1    4    8     3     4    1.2712E+00  2.2567E-01   1.0456E+00  0.000E+00  0.000E+00  0.000E+00  1.06682E+03  1.364E+00  7.455E+00  6.709E-02  1.682E+00
   1    5    8     3     5    1.0456E+00  1.5790E-01   8.8768E-01  0.000E+00  0.000E+00  0.000E+00  1.06362E+03  1.164E+00  6.655E+00  4.991E-02  1.582E+00
   1    6    8     3     6    8.8768E-01  5.5980E-02   8.3170E-01  0.000E+00  0.000E+00  0.000E+00  1.06158E+03  1.036E+00  6.145E+00  1.844E-02  1.518E+00
   1    5   10     4     1    1.0000E+01  9.0919E-02   9.9091E+00  0.000E+00  0.000E+00  0.000E+00  1.07836E+03  6.368E-01  1.000E+01  2.500E-02  1.212E+00
   1    5    9     4     2    9.9091E+00  1.8158E-01   9.7275E+00  0.000E+00  0.000E+00  0.000E+00  1.07154E+03  6.315E-01  1.000E+01  5.000E-02  1.211E+00
   1    6    8     4     3    9.7275E+00  1.2689E-01   9.6006E+00  0.000E+00  0.000E+00  0.000E+00  1.06381E+03  6.256E-01  1.000E+01  3.500E-02  1.209E+00
   1    6    8     5     1    1.0432E+01  2.2686E-09   1.0432E+01  0.000E+00  0.000E+00  0.000E+00  1.05868E+03  6.790E-01  1.542E+01  6.166E-10  1.226E+00
   1    7    7     5     2    1.0432E+01  2.8306E-09   1.0432E+01  0.000E+00  0.000E+00  0.000E+00  1.05418E+03  6.784E-01  1.539E+01  7.695E-10  1.226E+00
   1    8    7     5     3    1.0432E+01  1.9868E-09   1.0432E+01  0.000E+00  0.000E+00  0.000E+00  1.04993E+03  6.794E-01  1.543E+01  5.400E-10  1.226E+00
   1    8    6     5     4    1.0432E+01  1.4217E-09   1.0432E+01  0.000E+00  0.000E+00  0.000E+00  1.04693E+03  6.800E-01  1.545E+01  3.863E-10  1.227E+00
   1    9    6     6     1    4.8975E+01  2.8948E-01   4.8685E+01  0.000E+00  0.000E+00  0.000E+00  1.04455E+03  1.825E+00  1.200E+01  6.000E-02  1.608E+00
   1   10    7     6     2    4.8685E+01  2.8909E-01   4.8396E+01  0.000E+00  0.000E+00  0.000E+00  1.04000E+03  1.818E+00  1.200E+01  6.000E-02  1.606E+00
   1   11    7     6     3    4.8396E+01  2.8870E-01   4.8108E+01  0.000E+00  0.000E+00  0.000E+00  1.03545E+03  1.812E+00  1.200E+01  6.000E-02  1.604E+00
   1   12    7     6     4    4.8108E+01  2.8831E-01   4.7819E+01  0.000E+00  0.000E+00  0.000E+00  1.03090E+03  1.805E+00  1.200E+01  6.000E-02  1.602E+00
   1   13    7     6     5    4.7819E+01  1.1521E-01   4.7704E+01  0.000E+00  0.000E+00  0.000E+00  1.02771E+03  1.801E+00  1.200E+01  2.400E-02  1.600E+00
   1   14    9     7     1    1.5000E+02  2.9539E-08   1.5000E+02  0.000E+00  0.000E+00  0.000E+00  1.03986E+03  2.283E+00  5.528E+01  5.591E-09  1.761E+00
   1   13    8     7     2    1.5000E+02  3.2486E-14   1.5000E+02  0.000E+00  0.000E+00  0.000E+00  1.03478E+03  2.283E+00  5.527E+01  6.150E-15  1.761E+00
   1   13    7     7     3    1.5000E+02  2.9539E-08   1.5000E+02  0.000E+00  0.000E+00  0.000E+00  1.02970E+03  2.283E+00  5.528E+01  5.591E-09  1.761E+00
   1   13    6     8     1    1.9770E+02  2.8271E-31   1.9770E+02  0.000E+00  0.000E+00  0.000E+00  1.02500E+03  3.124E+00  4.530E+01  4.616E-32  2.041E+00
   1   13    5     8     2    1.9770E+02  2.8157E-16   1.9770E+02  0.000E+00  0.000E+00  0.000E+00  1.01874E+03  3.116E+00  4.518E+01  4.604E-17  2.039E+00
   1   13    4     8     3    1.9770E+02  2.5645E-08   1.9770E+02  0.000E+00  0.000E+00  0.000E+00  1.01249E+03  3.117E+00  4.519E+01  4.605E-09  1.856E+00
   1   13    3     8     4    1.9770E+02  7.4217E-12   1.9770E+02  0.000E+00  0.000E+00  0.000E+00  1.00625E+03  3.122E+00  4.527E+01  4.613E-12  5.363E-01
   1   13    2     8     5    1.9770E+02 -1.0478E+00   1.9875E+02  0.000E+00  0.000E+00  0.000E+00  1.00000E+03  3.127E+00  4.535E+01  4.621E+00 -7.559E-02
   1   13    1     8     6    1.9875E+02 -1.6713E+00   2.0042E+02  0.000E+00  0.000E+00  0.000E+00  9.95010E+02  3.135E+00  4.546E+01  2.780E+00 -2.004E-01
   1    6    8     9     1    0.0000E+00  0.0000E+00   0.0000E+00  0.000E+00  0.000E+00  0.000E+00  1.07850E+03  0.000E+00  4.000E+00  0.000E+00  1.000E+00



 UBDSV3 SAVING "     NETRECHARGE" ON UNIT 100 AT TIME STEP    15, STRESS PERIOD   3
 UBDSV3 SAVING "    NETDISCHARGE" ON UNIT 101 AT TIME STEP    15, STRESS PERIOD   3
 UBDSV3 SAVING "           GW ET" ON UNIT  61 AT TIME STEP    15, STRESS PERIOD   3
 UBDSV3 SAVING "    UZF RECHARGE" ON UNIT  61 AT TIME STEP    15, STRESS PERIOD   3
 UBDSV3 SAVING " SURFACE LEAKAGE" ON UNIT  61 AT TIME STEP    15, STRESS PERIOD   3
 UBDSV3 SAVING "       HORT+DUNN" ON UNIT  61 AT TIME STEP    15, STRESS PERIOD   3
 UBDSV3 SAVING "  STORAGE CHANGE" ON UNIT  61 AT TIME STEP    15, STRESS PERIOD   3


UNSATURATED ZONE PACKAGE VOLUMETRIC BUDGET FOR  TIME STEP    15 STRESS PERIOD    3
  ------------------------------------------------------------------------------



     CUMULATIVE VOLUMES      L**3       RATES FOR THIS TIME STEP      L**3/T
     ------------------                 ------------------------

           IN:                                      IN:
           ---                                      ---
        INFILTRATION =     5568075.0000          INFILTRATION =           0.8475

          OUT:                                     OUT:
          ----                                     ----
              UZF ET =     1128188.4590                UZF ET =           0.2860
        UZF RECHARGE =   117716251.6509          UZF RECHARGE =          28.8133

            IN - OUT =  -113276365.1098              IN - OUT =         -28.2518

          STORAGE:                                 STORAGE:
          --------                                 --------
      STORAGE CHANGE =  -113275703.8338        STORAGE CHANGE =         -28.2518

 PERCENT DISCREPANCY IS DIFFERENCE BETWEEN IN-OUT MINUS CHANGE IN STORAGE
 DIVIDED BY THE AVERAGE OF IN AND OUT TIMES 100

 PERCENT DISCREPANCY =          -0.00     PERCENT DISCREPANCY =          -0.00






1
              HEAD IN LAYER   1 AT END OF TIME STEP    15 IN STRESS PERIOD    3
  -----------------------------------------------------------------------------

           1       2       3       4       5       6       7       8       9      10
 ...................................................................................
   1  1011.54 1011.41 6999.00 6999.00 6999.00 6999.00 6999.00 6999.00 6999.00 6999.00
   2  1011.92 1011.06 1010.98 6999.00 6999.00 1012.22 1012.28 1012.29 6999.00 6999.00
   3  6999.00 1011.26 1010.93 1010.92 1011.58 1011.87 1012.02 1011.87 6999.00 6999.00
   4  1011.91 1011.41 1011.04 1010.85 1011.00 1010.97 1011.30 1012.03 1012.07 6999.00
   5  1011.85 1011.33 1010.98 1010.72 1010.77 1010.92 1010.98 1011.30 1011.90 1012.58
   6  1011.74 1011.19 1010.85 1010.58 1010.62 1010.80 1010.85 1011.10 1011.71 1012.73
   7  1011.62 1010.94 1010.64 1010.39 1010.44 1010.64 1010.68 1010.87 1011.56 6999.00
   8  6999.00 1010.50 1010.33 1010.14 1010.21 1010.43 1010.48 1010.94 1011.58 6999.00
   9  6999.00 1009.83 1009.83 1009.76 1009.89 1010.19 1010.32 1010.87 1011.66 6999.00
  10  6999.00 1008.85 1009.07 1009.24 1009.50 1009.87 1010.30 1010.90 1011.85 1012.63
  11  6999.00 1007.13 1007.77 1008.53 1009.05 1009.62 1010.27 1011.08 1012.22 6999.00
  12   999.96 1003.86 1006.11 1007.56 1008.55 1009.45 1010.33 1011.59 1013.41 6999.00
  13   995.61 1000.23 1004.64 1006.92 1008.26 1009.41 1010.67 1012.24 1014.84 6999.00
  14  6999.00 1003.61 1005.35 1007.21 1008.65 1009.96 1011.58 1014.12 1017.02 6999.00
  15  6999.00 6999.00 1007.21 1008.19 1009.25 1010.03 6999.00 6999.00 6999.00 6999.00

 HEAD WILL BE SAVED ON UNIT   62 AT END OF TIME STEP   15, STRESS PERIOD    3
1
  VOLUMETRIC BUDGET FOR ENTIRE MODEL AT END OF TIME STEP   15, STRESS PERIOD   3
  ------------------------------------------------------------------------------

     CUMULATIVE VOLUMES      L**3       RATES FOR THIS TIME STEP      L**3/T
     ------------------                 ------------------------

           IN:                                      IN:
           ---                                      ---
             STORAGE =           0.0000               STORAGE =           0.0000
       CONSTANT HEAD =           0.0000         CONSTANT HEAD =           0.0000
               WELLS =           0.0000                 WELLS =           0.0000
     HEAD DEP BOUNDS =     7015117.5000       HEAD DEP BOUNDS =           1.0634
      STREAM LEAKAGE =    19728294.0000        STREAM LEAKAGE =           4.2960
        UZF RECHARGE =   117716248.0000          UZF RECHARGE =          28.8133
               GW ET =           0.0000                 GW ET =           0.0000
     SURFACE LEAKAGE =           0.0000       SURFACE LEAKAGE =           0.0000

            TOTAL IN =   144459664.0000              TOTAL IN =          34.1727

          OUT:                                     OUT:
          ----                                     ----
             STORAGE =   124962760.0000               STORAGE =          31.1578
       CONSTANT HEAD =           0.0000         CONSTANT HEAD =           0.0000
               WELLS =           0.0000                 WELLS =           0.0000
     HEAD DEP BOUNDS =     1859380.1250       HEAD DEP BOUNDS =           0.2892
      STREAM LEAKAGE =    15640945.0000        STREAM LEAKAGE =           2.7192
        UZF RECHARGE =           0.0000          UZF RECHARGE =           0.0000
               GW ET =     1985991.3750                 GW ET =       3.9835E-03
     SURFACE LEAKAGE =           0.0000       SURFACE LEAKAGE =           0.0000

           TOTAL OUT =   144449072.0000             TOTAL OUT =          34.1702

            IN - OUT =       10592.0000              IN - OUT =       2.5101E-03

 PERCENT DISCREPANCY =           0.01     PERCENT DISCREPANCY =           0.01






         TIME SUMMARY AT END OF TIME STEP   15 IN STRESS PERIOD    3
                    SECONDS     MINUTES      HOURS       DAYS        YEARS
                    -----------------------------------------------------------
   TIME STEP LENGTH  87600.      1460.0      24.333      1.0139     2.77588E-03
 STRESS PERIOD TIME 1.31400E+06  21900.      365.00      15.208     4.16381E-02
         TOTAL TIME 6.57000E+06 1.09500E+05  1825.0      76.042     0.20819    
1
 
 SOLVING FOR HEAD 
                                                   Max.-Head-Change                         Max.-Flux-Residual
  Residual-Control   Outer-Iter.   Inner-Iter.     Column Row Layer    Maximum-Head-Change  Column Row Layer    Maximum-Flux-Residual          L2-NORM 
          0                 1           2             7    3     1       0.9769319717E-02       6    4    1         0.3463643427E+00      0.1907667206E+01
          0                 2           2             7    3     1       0.4368162238E-02       7    3    1         0.1139232758E+00      0.5416679050E+00
          0                 3           2             7    3     1       0.1953141911E-02       7    3    1         0.5093874258E-01      0.2136524638E+00
          0                 4           2             7    3     1       0.8733047222E-03       7    3    1         0.2277629920E-01      0.9349889828E-01
          0                 5           2             7    3     1       0.3904752457E-03       7    3    1         0.1018390970E-01      0.4168891242E-01
          0                 6           2             7    3     1       0.1745888565E-03       7    3    1         0.4553458963E-02      0.1864301704E-01
          0                 7           1             7    3     1       0.7806112803E-04       7    3    1         0.2035933460E-02      0.8341174768E-02
          0                 8           1             7    3     1       0.3490185584E-04       7    3    1         0.9102926232E-03      0.3732428080E-02
          0                 9           1             7    3     1       0.1560478403E-04       7    3    1         0.4069995055E-03      0.1670259580E-02
          0                10           1             7    3     1       0.6976903954E-05       7    3    1         0.1819710584E-03      0.7474827704E-03

    ------------------------------------------------
       NWT REQUIRED           10 OUTER ITERATIONS 
       AND A TOTAL OF         16 INNER ITERATIONS.
    ------------------------------------------------

 NO OUTPUT CONTROL FOR STRESS PERIOD    3   TIME STEP   16
 
 SOLVING FOR HEAD 
                                                   Max.-Head-Change                         Max.-Flux-Residual
  Residual-Control   Outer-Iter.   Inner-Iter.     Column Row Layer    Maximum-Head-Change  Column Row Layer    Maximum-Flux-Residual          L2-NORM 
          0                 1           2             7    3     1       0.9715164420E-02       6    4    1         0.3471573688E+00      0.1905898405E+01
          0                 2           2             7    3     1       0.4344086086E-02       7    3    1         0.1132924188E+00      0.5405852484E+00
          0                 3           2             7    3     1       0.1942437666E-02       7    3    1         0.5065827607E-01      0.2130964705E+00
          0                 4           2             7    3     1       0.8685453553E-03       7    3    1         0.2265160266E-01      0.9324472310E-01
          0                 5           2             7    3     1       0.3883589977E-03       7    3    1         0.1012846603E-01      0.4157565745E-01
          0                 6           2             7    3     1       0.1736478160E-03       7    3    1         0.4528805723E-02      0.1859277401E-01
          0                 7           1             7    3     1       0.7764264898E-04       7    3    1         0.2024970694E-02      0.8318898947E-02
          0                 8           1             7    3     1       0.3471574859E-04       7    3    1         0.9054174461E-03      0.3722552056E-02
          0                 9           1             7    3     1       0.1552201353E-04       7    3    1         0.4048313818E-03      0.1665881038E-02
          0                10           1             7    3     1       0.6940090109E-05       7    3    1         0.1810067829E-03      0.7455401948E-03

    ------------------------------------------------
       NWT REQUIRED           10 OUTER ITERATIONS 
       AND A TOTAL OF         16 INNER ITERATIONS.
    ------------------------------------------------

 NO OUTPUT CONTROL FOR STRESS PERIOD    3   TIME STEP   17
 
 SOLVING FOR HEAD 
                                                   Max.-Head-Change                         Max.-Flux-Residual
  Residual-Control   Outer-Iter.   Inner-Iter.     Column Row Layer    Maximum-Head-Change  Column Row Layer    Maximum-Flux-Residual          L2-NORM 
          0                 1           2             7    3     1       0.9661584670E-02       6    4    1         0.3478694564E+00      0.1904892477E+01
          0                 2           2             7    3     1       0.4320265184E-02       7    3    1         0.1126682635E+00      0.5395914770E+00
          0                 3           2             7    3     1       0.1931846629E-02       7    3    1         0.5038078167E-01      0.2125538412E+00
          0                 4           2             7    3     1       0.8638362033E-03       7    3    1         0.2252822433E-01      0.9299521161E-01
          0                 5           2             7    3     1       0.3862650241E-03       7    3    1         0.1007360706E-01      0.4146440450E-01
          0                 6           2             7    3     1       0.1727166581E-03       7    3    1         0.4504411873E-02      0.1854340726E-01
          0                 7           1             7    3     1       0.7722855413E-04       7    3    1         0.2014123003E-02      0.8297020381E-02
          0                 8           1             7    3     1       0.3453158707E-04       7    3    1         0.9005933332E-03      0.3712847154E-02
          0                 9           1             7    3     1       0.1544010666E-04       7    3    1         0.4026859193E-03      0.1661575577E-02
          0                10           1             7    3     1       0.6903659185E-05       7    3    1         0.1800525631E-03      0.7436307120E-03

    ------------------------------------------------
       NWT REQUIRED           10 OUTER ITERATIONS 
       AND A TOTAL OF         16 INNER ITERATIONS.
    ------------------------------------------------

 NO OUTPUT CONTROL FOR STRESS PERIOD    3   TIME STEP   18
 
 SOLVING FOR HEAD 
                                                   Max.-Head-Change                         Max.-Flux-Residual
  Residual-Control   Outer-Iter.   Inner-Iter.     Column Row Layer    Maximum-Head-Change  Column Row Layer    Maximum-Flux-Residual          L2-NORM 
          0                 1           2             7    3     1       0.9609045988E-02       6    4    1         0.3485059204E+00      0.1904137550E+01
          0                 2           2             7    3     1       0.4296904499E-02       7    3    1         0.1120562229E+00      0.5386278590E+00
          0                 3           2             7    3     1       0.1921459051E-02       7    3    1         0.5010864280E-01      0.2120209652E+00
          0                 4           2             7    3     1       0.8592170071E-03       7    3    1         0.2240721368E-01      0.9274983959E-01
          0                 5           2             7    3     1       0.3842108267E-03       7    3    1         0.1001979494E-01      0.4135496421E-01
          0                 6           2             7    3     1       0.1718030887E-03       7    3    1         0.4480480904E-02      0.1849483736E-01
          0                 7           1             7    3     1       0.7682223861E-04       7    3    1         0.2003480015E-02      0.8275467528E-02
          0                 8           1             7    3     1       0.3435086584E-04       7    3    1         0.8958597461E-03      0.3703291999E-02
          0                 9           1             7    3     1       0.1535972147E-04       7    3    1         0.4005804973E-03      0.1657340591E-02
          0                10           1             7    3     1       0.6867901684E-05       7    3    1         0.1791160562E-03      0.7417526773E-03

    ------------------------------------------------
       NWT REQUIRED           10 OUTER ITERATIONS 
       AND A TOTAL OF         16 INNER ITERATIONS.
    ------------------------------------------------

 NO OUTPUT CONTROL FOR STRESS PERIOD    3   TIME STEP   19
 
 SOLVING FOR HEAD 
                                                   Max.-Head-Change                         Max.-Flux-Residual
  Residual-Control   Outer-Iter.   Inner-Iter.     Column Row Layer    Maximum-Head-Change  Column Row Layer    Maximum-Flux-Residual          L2-NORM 
          0                 1           2             7    3     1       0.9557038070E-02       6    4    1         0.3490716125E+00      0.1903501218E+01
          0                 2           2             7    3     1       0.4273778358E-02       7    3    1         0.1114503583E+00      0.5376892550E+00
          0                 3           2             7    3     1       0.1911175125E-02       7    3    1         0.4983923313E-01      0.2114974676E+00
          0                 4           2             7    3     1       0.8546436225E-03       7    3    1         0.2228740917E-01      0.9250853674E-01
          0                 5           2             7    3     1       0.3821768795E-03       7    3    1         0.9966515919E-02      0.4124730958E-01
          0                 6           2             7    3     1       0.1708984721E-03       7    3    1         0.4456785590E-02      0.1844705331E-01
          0                 7           1             7    3     1       0.7641988073E-04       7    3    1         0.1992941202E-02      0.8254272313E-02
          0                 8           1             7    3     1       0.3417189538E-04       7    3    1         0.8911722246E-03      0.3693891751E-02
          0                 9           1             7    3     1       0.1528010988E-04       7    3    1         0.3984954352E-03      0.1653169384E-02
          0                10           1             7    3     1       0.6832486711E-05       7    3    1         0.1781885561E-03      0.7399018603E-03

    ------------------------------------------------
       NWT REQUIRED           10 OUTER ITERATIONS 
       AND A TOTAL OF         16 INNER ITERATIONS.
    ------------------------------------------------

 NO OUTPUT CONTROL FOR STRESS PERIOD    3   TIME STEP   20
 
 SOLVING FOR HEAD 
                                                   Max.-Head-Change                         Max.-Flux-Residual
  Residual-Control   Outer-Iter.   Inner-Iter.     Column Row Layer    Maximum-Head-Change  Column Row Layer    Maximum-Flux-Residual          L2-NORM 
          0                 1           2             7    3     1       0.9505867822E-02       6    4    1         0.3495709134E+00      0.1902443154E+01
          0                 2           2             7    3     1       0.4251023508E-02       7    3    1         0.1108542464E+00      0.5366808111E+00
          0                 3           2             7    3     1       0.1901055783E-02       7    3    1         0.4957414629E-01      0.2109728326E+00
          0                 4           2             7    3     1       0.8501431995E-03       7    3    1         0.2216952089E-01      0.9227008996E-01
          0                 5           2             7    3     1       0.3801752801E-03       7    3    1         0.9914086397E-02      0.4114120640E-01
          0                 6           2             7    3     1       0.1700081981E-03       7    3    1         0.4433466906E-02      0.1839997328E-01
          0                 7           1             7    3     1       0.7602388304E-04       7    3    1         0.1982569384E-02      0.8233388463E-02
          0                 8           1             7    3     1       0.3399574455E-04       7    3    1         0.8865587506E-03      0.3684626702E-02
          0                 9           1             7    3     1       0.1520174971E-04       7    3    1         0.3964432262E-03      0.1649059087E-02
          0                10           1             7    3     1       0.6797626484E-05       7    3    1         0.1772756237E-03      0.7380781565E-03

    ------------------------------------------------
       NWT REQUIRED           10 OUTER ITERATIONS 
       AND A TOTAL OF         16 INNER ITERATIONS.
    ------------------------------------------------

 NO OUTPUT CONTROL FOR STRESS PERIOD    3   TIME STEP   21
 
 SOLVING FOR HEAD 
                                                   Max.-Head-Change                         Max.-Flux-Residual
  Residual-Control   Outer-Iter.   Inner-Iter.     Column Row Layer    Maximum-Head-Change  Column Row Layer    Maximum-Flux-Residual          L2-NORM 
          0                 1           2             7    3     1       0.9455513590E-02       6    4    1         0.3500140640E+00      0.1901744239E+01
          0                 2           2             7    3     1       0.4228629580E-02       7    3    1         0.1102676315E+00      0.5357586318E+00
          0                 3           2             7    3     1       0.1891096038E-02       7    3    1         0.4931325990E-01      0.2104613938E+00
          0                 4           2             7    3     1       0.8457133214E-03       7    3    1         0.2205348990E-01      0.9203364097E-01
          0                 5           2             7    3     1       0.3782048453E-03       7    3    1         0.9862477761E-02      0.4103528911E-01
          0                 6           2             7    3     1       0.1691316819E-03       7    3    1         0.4410510833E-02      0.1835276801E-01
          0                 7           1             7    3     1       0.7563395379E-04       7    3    1         0.1972357631E-02      0.8212368321E-02
          0                 8           1             7    3     1       0.3382226815E-04       7    3    1         0.8820158744E-03      0.3675269608E-02
          0                 9           1             7    3     1       0.1512456645E-04       7    3    1         0.3944221144E-03      0.1644893664E-02
          0                10           1             7    3     1       0.6763283611E-05       7    3    1         0.1763763768E-03      0.7362241845E-03

    ------------------------------------------------
       NWT REQUIRED           10 OUTER ITERATIONS 
       AND A TOTAL OF         16 INNER ITERATIONS.
    ------------------------------------------------

 NO OUTPUT CONTROL FOR STRESS PERIOD    3   TIME STEP   22
 
 SOLVING FOR HEAD 
                                                   Max.-Head-Change                         Max.-Flux-Residual
  Residual-Control   Outer-Iter.   Inner-Iter.     Column Row Layer    Maximum-Head-Change  Column Row Layer    Maximum-Flux-Residual          L2-NORM 
          0                 1           2             7    3     1       0.9405791733E-02       6    4    1         0.3503989848E+00      0.1900729455E+01
          0                 2           2             7    3     1       0.4206515020E-02       7    3    1         0.1096883747E+00      0.5347625492E+00
          0                 3           2             7    3     1       0.1881259738E-02       7    3    1         0.4905562409E-01      0.2099484598E+00
          0                 4           2             7    3     1       0.8413380150E-03       7    3    1         0.2193889534E-01      0.9180116590E-01
          0                 5           2             7    3     1       0.3762585518E-03       7    3    1         0.9811504194E-02      0.4093190577E-01
          0                 6           2             7    3     1       0.1682658545E-03       7    3    1         0.4387835730E-02      0.1830689995E-01
          0                 7           1             7    3     1       0.7524876240E-04       7    3    1         0.1962270298E-02      0.8192022044E-02
          0                 8           1             7    3     1       0.3365089432E-04       7    3    1         0.8775281472E-03      0.3666243496E-02
          0                 9           1             7    3     1       0.1504831722E-04       7    3    1         0.3924254784E-03      0.1640889746E-02
          0                10           1             7    3     1       0.6729356423E-05       7    3    1         0.1754880086E-03      0.7344480137E-03

    ------------------------------------------------
       NWT REQUIRED           10 OUTER ITERATIONS 
       AND A TOTAL OF         16 INNER ITERATIONS.
    ------------------------------------------------

 NO OUTPUT CONTROL FOR STRESS PERIOD    3   TIME STEP   23
 
 SOLVING FOR HEAD 
                                                   Max.-Head-Change                         Max.-Flux-Residual
  Residual-Control   Outer-Iter.   Inner-Iter.     Column Row Layer    Maximum-Head-Change  Column Row Layer    Maximum-Flux-Residual          L2-NORM 
          0                 1           2             7    3     1       0.9356845939E-02       6    4    1         0.3507292455E+00      0.1900012142E+01
          0                 2           2             7    3     1       0.4184744432E-02       7    3    1         0.1091181533E+00      0.5338629202E+00
          0                 3           2             7    3     1       0.1871575902E-02       7    3    1         0.4880199304E-01      0.2094535237E+00
          0                 4           2             7    3     1       0.8370302912E-03       7    3    1         0.2182607589E-01      0.9157338624E-01
          0                 5           2             7    3     1       0.3743422170E-03       7    3    1         0.9761317492E-02      0.4083028526E-01
          0                 6           2             7    3     1       0.1674133091E-03       7    3    1         0.4365509451E-02      0.1826178237E-01
          0                 7           1             7    3     1       0.7486945925E-04       7    3    1         0.1952337606E-02      0.8172005299E-02
          0                 8           1             7    3     1       0.3348213102E-04       7    3    1         0.8731089820E-03      0.3657362577E-02
          0                 9           1             7    3     1       0.1497322588E-04       7    3    1         0.3904592450E-03      0.1636948775E-02
          0                10           1             7    3     1       0.6695942714E-05       7    3    1         0.1746131204E-03      0.7326989786E-03

    ------------------------------------------------
       NWT REQUIRED           10 OUTER ITERATIONS 
       AND A TOTAL OF         16 INNER ITERATIONS.
    ------------------------------------------------

 NO OUTPUT CONTROL FOR STRESS PERIOD    3   TIME STEP   24
 
 SOLVING FOR HEAD 
                                                   Max.-Head-Change                         Max.-Flux-Residual
  Residual-Control   Outer-Iter.   Inner-Iter.     Column Row Layer    Maximum-Head-Change  Column Row Layer    Maximum-Flux-Residual          L2-NORM 
          0                 1           2             7    3     1       0.9308494630E-02       6    4    1         0.3510085839E+00      0.1899762380E+01
          0                 2           2             7    3     1       0.4163236206E-02       7    3    1         0.1085548476E+00      0.5330216264E+00
          0                 3           2             7    3     1       0.1862007863E-02       7    3    1         0.4855141414E-01      0.2089692493E+00
          0                 4           2             7    3     1       0.8327736826E-03       7    3    1         0.2171460359E-01      0.9134922732E-01
          0                 5           2             7    3     1       0.3724484480E-03       7    3    1         0.9711725448E-02      0.4073018510E-01
          0                 6           2             7    3     1       0.1665707264E-03       7    3    1         0.4343445694E-02      0.1821733094E-01
          0                 7           1             7    3     1       0.7449455505E-04       7    3    1         0.1942520827E-02      0.8152277883E-02
          0                 8           1             7    3     1       0.3331531095E-04       7    3    1         0.8687410090E-03      0.3648608848E-02
          0                 9           1             7    3     1       0.1489899242E-04       7    3    1         0.3885156193E-03      0.1633064496E-02
          0                10           1             7    3     1       0.6662908422E-05       7    3    1         0.1737482237E-03      0.7309750745E-03

    ------------------------------------------------
       NWT REQUIRED           10 OUTER ITERATIONS 
       AND A TOTAL OF         16 INNER ITERATIONS.
    ------------------------------------------------

 NO OUTPUT CONTROL FOR STRESS PERIOD    3   TIME STEP   25
 
 SOLVING FOR HEAD 
                                                   Max.-Head-Change                         Max.-Flux-Residual
  Residual-Control   Outer-Iter.   Inner-Iter.     Column Row Layer    Maximum-Head-Change  Column Row Layer    Maximum-Flux-Residual          L2-NORM 
          0                 1           2             7    3     1       0.9260881741E-02       6    4    1         0.3512399877E+00      0.1898909778E+01
          0                 2           2             7    3     1       0.4142055162E-02       7    3    1         0.1080001385E+00      0.5320744474E+00
          0                 3           2             7    3     1       0.1852584806E-02       7    3    1         0.4830464428E-01      0.2084799302E+00
          0                 4           2             7    3     1       0.8285813239E-03       7    3    1         0.2160481916E-01      0.9112740989E-01
          0                 5           2             7    3     1       0.3705831548E-03       7    3    1         0.9662881423E-02      0.4063150757E-01
          0                 6           2             7    3     1       0.1657407654E-03       7    3    1         0.4321713471E-02      0.1817352718E-01
          0                 7           1             7    3     1       0.7412524659E-04       7    3    1         0.1932851005E-02      0.8132840396E-02
          0                 8           1             7    3     1       0.3315097124E-04       7    3    1         0.8644381787E-03      0.3639982459E-02
          0                 9           1             7    3     1       0.1482585908E-04       7    3    1         0.3866008736E-03      0.1629235544E-02
          0                10           1             7    3     1       0.6630361722E-05       7    3    1         0.1728961244E-03      0.7292759958E-03

    ------------------------------------------------
       NWT REQUIRED           10 OUTER ITERATIONS 
       AND A TOTAL OF         16 INNER ITERATIONS.
    ------------------------------------------------

 NO OUTPUT CONTROL FOR STRESS PERIOD    3   TIME STEP   26
 
 SOLVING FOR HEAD 
                                                   Max.-Head-Change                         Max.-Flux-Residual
  Residual-Control   Outer-Iter.   Inner-Iter.     Column Row Layer    Maximum-Head-Change  Column Row Layer    Maximum-Flux-Residual          L2-NORM 
          0                 1           2             7    3     1       0.9213827162E-02       6    4    1         0.3514265992E+00      0.1898177726E+01
          0                 2           2             7    3     1       0.4121120846E-02       7    3    1         0.1074519260E+00      0.5312133209E+00
          0                 3           2             7    3     1       0.1843270793E-02       7    3    1         0.4806074542E-01      0.2080075312E+00
          0                 4           2             7    3     1       0.8244371634E-03       7    3    1         0.2149630364E-01      0.9090993084E-01
          0                 5           2             7    3     1       0.3687391681E-03       7    3    1         0.9614598278E-02      0.4053443107E-01
          0                 6           2             7    3     1       0.1649202248E-03       7    3    1         0.4300229196E-02      0.1813041007E-01
          0                 7           1             7    3     1       0.7376010322E-04       7    3    1         0.1923290800E-02      0.8113700607E-02
          0                 8           1             7    3     1       0.3298847334E-04       7    3    1         0.8601838109E-03      0.3631487233E-02
          0                 9           1             7    3     1       0.1475353984E-04       7    3    1         0.3847075577E-03      0.1625464493E-02
          0                10           1             7    3     1       0.6598174807E-05       7    3    1         0.1720535087E-03      0.7276014695E-03

    ------------------------------------------------
       NWT REQUIRED           10 OUTER ITERATIONS 
       AND A TOTAL OF         16 INNER ITERATIONS.
    ------------------------------------------------

 NO OUTPUT CONTROL FOR STRESS PERIOD    3   TIME STEP   27
 
 SOLVING FOR HEAD 
                                                   Max.-Head-Change                         Max.-Flux-Residual
  Residual-Control   Outer-Iter.   Inner-Iter.     Column Row Layer    Maximum-Head-Change  Column Row Layer    Maximum-Flux-Residual          L2-NORM 
          0                 1           2             7    3     1       0.9167476543E-02       6    4    1         0.3515770300E+00      0.1898042697E+01
          0                 2           2             7    3     1       0.4100498503E-02       7    3    1         0.1069119091E+00      0.5304186224E+00
          0                 3           2             7    3     1       0.1834095048E-02       7    3    1         0.4782047867E-01      0.2075458469E+00
          0                 4           2             7    3     1       0.8203542902E-03       7    3    1         0.2138939791E-01      0.9069593712E-01
          0                 5           2             7    3     1       0.3669223491E-03       7    3    1         0.9567028673E-02      0.4043882267E-01
          0                 6           2             7    3     1       0.1641117281E-03       7    3    1         0.4279061228E-02      0.1808793091E-01
          0                 7           1             7    3     1       0.7340029948E-04       7    3    1         0.1913870829E-02      0.8094842887E-02
          0                 8           1             7    3     1       0.3282834363E-04       7    3    1         0.8559916297E-03      0.3623115540E-02
          0                 9           1             7    3     1       0.1468227133E-04       7    3    1         0.3828418144E-03      0.1621747958E-02
          0                10           1             7    3     1       0.6566453598E-05       7    3    1         0.1712231133E-03      0.7259511941E-03

    ------------------------------------------------
       NWT REQUIRED           10 OUTER ITERATIONS 
       AND A TOTAL OF         16 INNER ITERATIONS.
    ------------------------------------------------

 NO OUTPUT CONTROL FOR STRESS PERIOD    3   TIME STEP   28
 
 SOLVING FOR HEAD 
                                                   Max.-Head-Change                         Max.-Flux-Residual
  Residual-Control   Outer-Iter.   Inner-Iter.     Column Row Layer    Maximum-Head-Change  Column Row Layer    Maximum-Flux-Residual          L2-NORM 
          0                 1           2             7    3     1       0.9121811273E-02       6    4    1         0.3516822672E+00      0.1897807864E+01
          0                 2           2             7    3     1       0.4080179165E-02       7    3    1         0.1063798677E+00      0.5296297326E+00
          0                 3           2             7    3     1       0.1825053279E-02       7    3    1         0.4758373806E-01      0.2070910895E+00
          0                 4           2             7    3     1       0.8163306613E-03       7    3    1         0.2128405132E-01      0.9048525092E-01
          0                 5           2             7    3     1       0.3651317316E-03       7    3    1         0.9520148546E-02      0.4034467771E-01
          0                 6           2             7    3     1       0.1633148200E-03       7    3    1         0.4258198190E-02      0.1804609692E-01
          0                 7           1             7    3     1       0.7304562226E-04       7    3    1         0.1904585734E-02      0.8076267731E-02
          0                 8           1             7    3     1       0.3267048166E-04       7    3    1         0.8518591118E-03      0.3614868460E-02
          0                 9           1             7    3     1       0.1461200613E-04       7    3    1         0.3810024706E-03      0.1618086067E-02
          0                10           1             7    3     1       0.6535176587E-05       7    3    1         0.1704043996E-03      0.7243250881E-03

    ------------------------------------------------
       NWT REQUIRED           10 OUTER ITERATIONS 
       AND A TOTAL OF         16 INNER ITERATIONS.
    ------------------------------------------------

 NO OUTPUT CONTROL FOR STRESS PERIOD    3   TIME STEP   29
 
 SOLVING FOR HEAD 
                                                   Max.-Head-Change                         Max.-Flux-Residual
  Residual-Control   Outer-Iter.   Inner-Iter.     Column Row Layer    Maximum-Head-Change  Column Row Layer    Maximum-Flux-Residual          L2-NORM 
          0                 1           2             7    3     1       0.9076652161E-02       6    4    1         0.3517506027E+00      0.1901980334E+01
          0                 2           2             7    3     1       0.4060083907E-02       7    3    1         0.1058537178E+00      0.5292083607E+00
          0                 3           2             7    3     1       0.1816110735E-02       7    3    1         0.4734960579E-01      0.2066695108E+00
          0                 4           2             7    3     1       0.8123509799E-03       7    3    1         0.2117985978E-01      0.9028127952E-01
          0                 5           2             7    3     1       0.3633605813E-03       7    3    1         0.9473780006E-02      0.4025305320E-01
          0                 6           2             7    3     1       0.1625265370E-03       7    3    1         0.4237561775E-02      0.1800534906E-01
          0                 7           1             7    3     1       0.7269476674E-04       7    3    1         0.1895401039E-02      0.8058171081E-02
          0                 8           1             7    3     1       0.3251431270E-04       7    3    1         0.8477710770E-03      0.3606831689E-02
          0                 9           1             7    3     1       0.1454249127E-04       7    3    1         0.3791828450E-03      0.1614516894E-02
          0                10           1             7    3     1       0.6504232349E-05       7    3    1         0.1695944313E-03      0.7227404483E-03

    ------------------------------------------------
       NWT REQUIRED           10 OUTER ITERATIONS 
       AND A TOTAL OF         16 INNER ITERATIONS.
    ------------------------------------------------

 NO OUTPUT CONTROL FOR STRESS PERIOD    3   TIME STEP   30



 STREAM LISTING     PERIOD      3   STEP       30

 LAYER ROW COL. STREAM  RCH.  FLOW INTO     FLOW TO   FLOW OUT OF   OVRLND.     DIRECT     STREAM       STREAM     STREAM     STREAM   STREAMBED  STREAMBED
                SEG.NO.  NO.  STRM. RCH.    AQUIFER    STRM. RCH.    RUNOFF     PRECIP       ET          HEAD       DEPTH      WIDTH   CONDCTNC.   GRADIENT

   1    1    1     1     1    4.3598E+01  3.1596E-10   4.3598E+01  0.000E+00  0.000E+00  0.000E+00  1.09440E+03  1.357E+00  1.612E+01  7.252E-11  1.452E+00
   1    2    2     1     2    4.3598E+01  4.9105E-10   4.3598E+01  0.000E+00  0.000E+00  0.000E+00  1.08942E+03  1.356E+00  1.610E+01  1.127E-10  1.452E+00
   1    3    3     1     3    4.3598E+01  4.2105E-10   4.3598E+01  0.000E+00  0.000E+00  0.000E+00  1.08378E+03  1.357E+00  1.611E+01  9.665E-11  1.452E+00
   1    3    4     1     4    4.3598E+01  3.8954E-10   4.3598E+01  0.000E+00  0.000E+00  0.000E+00  1.07876E+03  1.357E+00  1.611E+01  8.941E-11  1.452E+00
   1    4    5     2     1    4.1598E+01  3.6151E-01   4.1237E+01  0.000E+00  0.000E+00  0.000E+00  1.07357E+03  1.635E+00  1.200E+01  7.800E-02  1.545E+00
   1    5    6     2     2    4.1237E+01  2.7763E-01   4.0959E+01  0.000E+00  0.000E+00  0.000E+00  1.06814E+03  1.627E+00  1.200E+01  6.000E-02  1.542E+00
   1    6    6     2     3    4.0959E+01  2.7723E-01   4.0682E+01  0.000E+00  0.000E+00  0.000E+00  1.06341E+03  1.621E+00  1.200E+01  6.000E-02  1.540E+00
   1    7    6     2     4    4.0682E+01  2.7684E-01   4.0405E+01  0.000E+00  0.000E+00  0.000E+00  1.05869E+03  1.614E+00  1.200E+01  6.000E-02  1.538E+00
   1    8    6     2     5    4.0405E+01  2.7644E-01   4.0129E+01  0.000E+00  0.000E+00  0.000E+00  1.05397E+03  1.607E+00  1.200E+01  6.000E-02  1.536E+00
   1    3    5     3     1    2.0000E+00  2.8252E-01   1.7175E+00  0.000E+00  0.000E+00  0.000E+00  1.07555E+03  1.909E+00  9.636E+00  7.227E-02  1.955E+00
   1    3    6     3     2    1.7175E+00  2.4905E-01   1.4684E+00  0.000E+00  0.000E+00  0.000E+00  1.07264E+03  1.727E+00  8.909E+00  6.682E-02  1.864E+00
   1    3    7     3     3    1.4684E+00  1.9718E-01   1.2712E+00  0.000E+00  0.000E+00  0.000E+00  1.06987E+03  1.555E+00  8.218E+00  5.547E-02  1.777E+00
   1    4    8     3     4    1.2712E+00  2.2567E-01   1.0456E+00  0.000E+00  0.000E+00  0.000E+00  1.06682E+03  1.364E+00  7.455E+00  6.709E-02  1.682E+00
   1    5    8     3     5    1.0456E+00  1.5790E-01   8.8768E-01  0.000E+00  0.000E+00  0.000E+00  1.06362E+03  1.164E+00  6.655E+00  4.991E-02  1.582E+00
   1    6    8     3     6    8.8768E-01  5.5980E-02   8.3170E-01  0.000E+00  0.000E+00  0.000E+00  1.06158E+03  1.036E+00  6.145E+00  1.844E-02  1.518E+00
   1    5   10     4     1    1.0000E+01  9.0919E-02   9.9091E+00  0.000E+00  0.000E+00  0.000E+00  1.07836E+03  6.368E-01  1.000E+01  2.500E-02  1.212E+00
   1    5    9     4     2    9.9091E+00  1.8158E-01   9.7275E+00  0.000E+00  0.000E+00  0.000E+00  1.07154E+03  6.315E-01  1.000E+01  5.000E-02  1.211E+00
   1    6    8     4     3    9.7275E+00  1.2689E-01   9.6006E+00  0.000E+00  0.000E+00  0.000E+00  1.06381E+03  6.256E-01  1.000E+01  3.500E-02  1.209E+00
   1    6    8     5     1    1.0432E+01  2.2686E-09   1.0432E+01  0.000E+00  0.000E+00  0.000E+00  1.05868E+03  6.790E-01  1.542E+01  6.166E-10  1.226E+00
   1    7    7     5     2    1.0432E+01  2.8306E-09   1.0432E+01  0.000E+00  0.000E+00  0.000E+00  1.05418E+03  6.784E-01  1.539E+01  7.695E-10  1.226E+00
   1    8    7     5     3    1.0432E+01  1.9868E-09   1.0432E+01  0.000E+00  0.000E+00  0.000E+00  1.04993E+03  6.794E-01  1.543E+01  5.400E-10  1.226E+00
   1    8    6     5     4    1.0432E+01  1.4217E-09   1.0432E+01  0.000E+00  0.000E+00  0.000E+00  1.04693E+03  6.800E-01  1.545E+01  3.863E-10  1.227E+00
   1    9    6     6     1    5.0561E+01  2.9160E-01   5.0269E+01  0.000E+00  0.000E+00  0.000E+00  1.04459E+03  1.860E+00  1.200E+01  6.000E-02  1.620E+00
   1   10    7     6     2    5.0269E+01  2.9121E-01   4.9978E+01  0.000E+00  0.000E+00  0.000E+00  1.04004E+03  1.854E+00  1.200E+01  6.000E-02  1.618E+00
   1   11    7     6     3    4.9978E+01  2.9082E-01   4.9687E+01  0.000E+00  0.000E+00  0.000E+00  1.03548E+03  1.847E+00  1.200E+01  6.000E-02  1.616E+00
   1   12    7     6     4    4.9687E+01  2.9043E-01   4.9397E+01  0.000E+00  0.000E+00  0.000E+00  1.03093E+03  1.841E+00  1.200E+01  6.000E-02  1.614E+00
   1   13    7     6     5    4.9397E+01  1.1607E-01   4.9281E+01  0.000E+00  0.000E+00  0.000E+00  1.02775E+03  1.836E+00  1.200E+01  2.400E-02  1.612E+00
   1   14    9     7     1    1.5000E+02  2.9539E-08   1.5000E+02  0.000E+00  0.000E+00  0.000E+00  1.03986E+03  2.283E+00  5.528E+01  5.591E-09  1.761E+00
   1   13    8     7     2    1.5000E+02  3.2486E-14   1.5000E+02  0.000E+00  0.000E+00  0.000E+00  1.03478E+03  2.283E+00  5.527E+01  6.150E-15  1.761E+00
   1   13    7     7     3    1.5000E+02  2.9539E-08   1.5000E+02  0.000E+00  0.000E+00  0.000E+00  1.02970E+03  2.283E+00  5.528E+01  5.591E-09  1.761E+00
   1   13    6     8     1    1.9928E+02  2.8284E-15   1.9928E+02  0.000E+00  0.000E+00  0.000E+00  1.02500E+03  3.125E+00  4.531E+01  4.618E-16  2.042E+00
   1   13    5     8     2    1.9928E+02  2.8284E-15   1.9928E+02  0.000E+00  0.000E+00  0.000E+00  1.01875E+03  3.125E+00  4.531E+01  4.618E-16  2.042E+00
   1   13    4     8     3    1.9928E+02  2.5435E-15   1.9928E+02  0.000E+00  0.000E+00  0.000E+00  1.01250E+03  3.126E+00  4.533E+01  4.619E-16  1.836E+00
   1   13    3     8     4    1.9928E+02  7.1262E-09   1.9928E+02  0.000E+00  0.000E+00  0.000E+00  1.00626E+03  3.131E+00  4.541E+01  4.627E-09  5.134E-01
   1   13    2     8     5    1.9928E+02 -1.1323E+00   2.0041E+02  0.000E+00  0.000E+00  0.000E+00  1.00001E+03  3.137E+00  4.548E+01  4.635E+00 -8.143E-02
   1   13    1     8     6    2.0041E+02 -1.7217E+00   2.0213E+02  0.000E+00  0.000E+00  0.000E+00  9.95020E+02  3.145E+00  4.561E+01  2.788E+00 -2.058E-01
   1    6    8     9     1    0.0000E+00  0.0000E+00   0.0000E+00  0.000E+00  0.000E+00  0.000E+00  1.07850E+03  0.000E+00  4.000E+00  0.000E+00  1.000E+00





UNSATURATED ZONE PACKAGE VOLUMETRIC BUDGET FOR  TIME STEP    30 STRESS PERIOD    3
  ------------------------------------------------------------------------------



     CUMULATIVE VOLUMES      L**3       RATES FOR THIS TIME STEP      L**3/T
     ------------------                 ------------------------

           IN:                                      IN:
           ---                                      ---
        INFILTRATION =     6681690.0000          INFILTRATION =           0.8475

          OUT:                                     OUT:
          ----                                     ----
              UZF ET =     1503962.6425                UZF ET =           0.2859
        UZF RECHARGE =   155356122.2786          UZF RECHARGE =          28.5188

            IN - OUT =  -150178394.9211              IN - OUT =         -27.9572

          STORAGE:                                 STORAGE:
          --------                                 --------
      STORAGE CHANGE =  -150177727.8734        STORAGE CHANGE =         -27.9572

 PERCENT DISCREPANCY IS DIFFERENCE BETWEEN IN-OUT MINUS CHANGE IN STORAGE
 DIVIDED BY THE AVERAGE OF IN AND OUT TIMES 100

 PERCENT DISCREPANCY =          -0.00     PERCENT DISCREPANCY =          -0.00






1
  VOLUMETRIC BUDGET FOR ENTIRE MODEL AT END OF TIME STEP   30, STRESS PERIOD   3
  ------------------------------------------------------------------------------

     CUMULATIVE VOLUMES      L**3       RATES FOR THIS TIME STEP      L**3/T
     ------------------                 ------------------------

           IN:                                      IN:
           ---                                      ---
             STORAGE =           0.0000               STORAGE =           0.0000
       CONSTANT HEAD =           0.0000         CONSTANT HEAD =           0.0000
               WELLS =           0.0000                 WELLS =           0.0000
     HEAD DEP BOUNDS =     8410878.0000       HEAD DEP BOUNDS =           1.0612
      STREAM LEAKAGE =    25375096.0000        STREAM LEAKAGE =           4.3175
        UZF RECHARGE =   155356112.0000          UZF RECHARGE =          28.5188
               GW ET =           0.0000                 GW ET =           0.0000
     SURFACE LEAKAGE =           0.0000       SURFACE LEAKAGE =           0.0000

            TOTAL IN =   189142080.0000              TOTAL IN =          33.8975

          OUT:                                     OUT:
          ----                                     ----
             STORAGE =   165534848.0000               STORAGE =          30.7467
       CONSTANT HEAD =           0.0000         CONSTANT HEAD =           0.0000
               WELLS =           0.0000                 WELLS =           0.0000
     HEAD DEP BOUNDS =     2240218.2500       HEAD DEP BOUNDS =           0.2902
      STREAM LEAKAGE =    19361932.0000        STREAM LEAKAGE =           2.8541
        UZF RECHARGE =           0.0000          UZF RECHARGE =           0.0000
               GW ET =     1991277.2500                 GW ET =       4.0511E-03
     SURFACE LEAKAGE =           0.0000       SURFACE LEAKAGE =           0.0000

           TOTAL OUT =   189128288.0000             TOTAL OUT =          33.8950

            IN - OUT =       13792.0000              IN - OUT =       2.4261E-03

 PERCENT DISCREPANCY =           0.01     PERCENT DISCREPANCY =           0.01






         TIME SUMMARY AT END OF TIME STEP   30 IN STRESS PERIOD    3
                    SECONDS     MINUTES      HOURS       DAYS        YEARS
                    -----------------------------------------------------------
   TIME STEP LENGTH  87600.      1460.0      24.333      1.0139     2.77588E-03
 STRESS PERIOD TIME 2.62800E+06  43800.      730.00      30.417     8.32763E-02
         TOTAL TIME 7.88400E+06 1.31400E+05  2190.0      91.250     0.24983    
1
1
                            STRESS PERIOD NO.    4, LENGTH =   2628000.    
                            -----------------------------------------------

                              NUMBER OF TIME STEPS =    30

                               MULTIPLIER FOR DELT =     1.000

                            INITIAL TIME STEP SIZE =   87600.00    

 WELL NO.  LAYER   ROW   COL   STRESS RATE         
 --------------------------------------------------
      1      1      6      4       0.000    
      2      1      6      7       0.000    
      3      1      7      4       0.000    
      4      1      7      5       0.000    
      5      1      8      4       0.000    
      6      1      8      5       0.000    
      7      1      9      4       0.000    
      8      1      9      5       0.000    
      9      1     10      4       0.000    
     10      1     10      5       0.000    

     10 WELLS

 REUSING NON-PARAMETER GHB CELLS FROM LAST STRESS PERIOD

      2 GHB CELLS

 REUSING STREAM SEGMENT DATA FROM LAST STRESS PERIOD



            AREAL INFILTRATION RATE
 READING ON UNIT   19 WITH FORMAT: (10F4.0)            

            1           2           3           4           5           6           7           8           9          10
 ........................................................................................................................
   1   1.0000E-10  2.0000E-10   0.000       0.000       0.000       0.000       0.000       0.000       0.000       0.000    
   2   2.0000E-10  1.0000E-10  2.0000E-10   0.000       0.000      8.0000E-10  8.0000E-10  5.0000E-10   0.000       0.000    
   3    0.000      5.0000E-10  1.0000E-10  1.0000E-10  8.0000E-10  8.0000E-10  5.0000E-10  5.0000E-10   0.000       0.000    
   4   8.0000E-10  5.0000E-10  1.0000E-10  1.0000E-10  1.0000E-10  1.0000E-10  1.0000E-10  1.0000E-10  2.0000E-10   0.000    
   5   8.0000E-10  5.0000E-10  1.0000E-10  1.0000E-10  1.0000E-10  1.0000E-10  1.0000E-10  1.0000E-10  1.0000E-10  1.0000E-10
   6   8.0000E-10  5.0000E-10  5.0000E-10  2.0000E-10  2.0000E-10  1.0000E-10  1.0000E-10  1.0000E-10  1.0000E-10  5.0000E-10
   7   8.0000E-10  5.0000E-10  5.0000E-10  2.0000E-10  2.0000E-10  1.0000E-10  1.0000E-10  2.0000E-10  2.0000E-10   0.000    
   8    0.000      5.0000E-10  5.0000E-10  2.0000E-10  2.0000E-10  1.0000E-10  1.0000E-10  2.0000E-10  5.0000E-10   0.000    
   9    0.000      5.0000E-10  5.0000E-10  2.0000E-10  2.0000E-10  1.0000E-10  1.0000E-10  2.0000E-10  5.0000E-10   0.000    
  10    0.000      5.0000E-10  5.0000E-10  2.0000E-10  2.0000E-10  1.0000E-10  1.0000E-10  2.0000E-10  5.0000E-10  8.0000E-10
  11    0.000      1.0000E-10  1.0000E-10  1.0000E-10  1.0000E-10  1.0000E-10  1.0000E-10  2.0000E-10  5.0000E-10   0.000    
  12   1.0000E-10  1.0000E-10  1.0000E-10  1.0000E-10  1.0000E-10  1.0000E-10  1.0000E-10  1.0000E-10  2.0000E-10   0.000    
  13   1.0000E-10  1.0000E-10  2.0000E-10  2.0000E-10  2.0000E-10  2.0000E-10  2.0000E-10  1.0000E-10  1.0000E-10   0.000    
  14    0.000      2.0000E-10  5.0000E-10  5.0000E-10  5.0000E-10  5.0000E-10  5.0000E-10  2.0000E-10  1.0000E-10   0.000    
  15    0.000       0.000      8.0000E-10  8.0000E-10  8.0000E-10  8.0000E-10   0.000       0.000       0.000       0.000    

                  ET RATE =  1.000000E-10

 USING ET EXTINCTION DEPTH FROM PREVIOUS STRESS PERIOD. CURRENT PERIOD IS:       4

 USING EXTINCTION WATER CONTENT FROM PREVIOUS STRESS PERIOD. CURRENT PERIOD IS:       4
 
 SOLVING FOR HEAD 
                                                   Max.-Head-Change                         Max.-Flux-Residual
  Residual-Control   Outer-Iter.   Inner-Iter.     Column Row Layer    Maximum-Head-Change  Column Row Layer    Maximum-Flux-Residual          L2-NORM 
          0                 1           2             2   13     1       0.1589631430E-01       2   13    1         0.9062223910E+00      0.2208099143E+01
          0                 2           2             7    3     1       0.4040280508E-02       2   13    1         0.1317191123E+00      0.5521116683E+00
          0                 3           2             7    3     1       0.1807298408E-02       7    3    1         0.4711887473E-01      0.2077180434E+00
          0                 4           2             7    3     1       0.8084294682E-03       7    3    1         0.2107718625E-01      0.9020649925E-01
          0                 5           2             7    3     1       0.3616154364E-03       7    3    1         0.9428089727E-02      0.4019028844E-01
          0                 6           2             7    3     1       0.1617498860E-03       7    3    1         0.4217228627E-02      0.1797582228E-01
          0                 7           1             7    3     1       0.7234911603E-04       7    3    1         0.1886352004E-02      0.8044954986E-02
          0                 8           1             7    3     1       0.3236047365E-04       7    3    1         0.8437437444E-03      0.3600954668E-02
          0                 9           1             7    3     1       0.1447401924E-04       7    3    1         0.3773903836E-03      0.1611904391E-02
          0                10           1             7    3     1       0.6473755068E-05       7    3    1         0.1687966220E-03      0.7215788975E-03

    ------------------------------------------------
       NWT REQUIRED           10 OUTER ITERATIONS 
       AND A TOTAL OF         16 INNER ITERATIONS.
    ------------------------------------------------

 NO OUTPUT CONTROL FOR STRESS PERIOD    4   TIME STEP    1
 
 SOLVING FOR HEAD 
                                                   Max.-Head-Change                         Max.-Flux-Residual
  Residual-Control   Outer-Iter.   Inner-Iter.     Column Row Layer    Maximum-Head-Change  Column Row Layer    Maximum-Flux-Residual          L2-NORM 
          0                 1           2             2   13     1       0.1397233238E-01       2   13    1         0.7959734243E+00      0.2160230916E+01
          0                 2           2             7    3     1       0.4020761996E-02       2   13    1         0.1158185785E+00      0.5478136633E+00
          0                 3           2             7    3     1       0.1798612196E-02       7    3    1         0.4689146030E-01      0.2071612990E+00
          0                 4           2             7    3     1       0.8045637409E-03       7    3    1         0.2097598063E-01      0.9003019597E-01
          0                 5           2             7    3     1       0.3598949550E-03       7    3    1         0.9383048657E-02      0.4011518081E-01
          0                 6           2             7    3     1       0.1609841364E-03       7    3    1         0.4197182487E-02      0.1794259178E-01
          0                 7           1             7    3     1       0.7200828296E-04       7    3    1         0.1877429824E-02      0.8030198857E-02
          0                 8           1             7    3     1       0.3220876405E-04       7    3    1         0.8397724812E-03      0.3594398176E-02
          0                 9           1             7    3     1       0.1440648801E-04       7    3    1         0.3756226965E-03      0.1608992248E-02
          0                10           1             7    3     1       0.6443693721E-05       7    3    1         0.1680097600E-03      0.7202850143E-03

    ------------------------------------------------
       NWT REQUIRED           10 OUTER ITERATIONS 
       AND A TOTAL OF         16 INNER ITERATIONS.
    ------------------------------------------------

 NO OUTPUT CONTROL FOR STRESS PERIOD    4   TIME STEP    2
 
 SOLVING FOR HEAD 
                                                   Max.-Head-Change                         Max.-Flux-Residual
  Residual-Control   Outer-Iter.   Inner-Iter.     Column Row Layer    Maximum-Head-Change  Column Row Layer    Maximum-Flux-Residual          L2-NORM 
          0                 1           2             2   13     1       0.1241402260E-01       2   13    1         0.7067021012E+00      0.2124317108E+01
          0                 2           2             7    3     1       0.4001451831E-02       7    3    1         0.1043185944E+00      0.5445273221E+00
          0                 3           2             7    3     1       0.1790018749E-02       7    3    1         0.4666647362E-01      0.2066606909E+00
          0                 4           2             7    3     1       0.8007393155E-03       7    3    1         0.2087585593E-01      0.8985673054E-01
          0                 5           2             7    3     1       0.3581928631E-03       7    3    1         0.9338488856E-02      0.4004026058E-01
          0                 6           2             7    3     1       0.1602265744E-03       7    3    1         0.4177350626E-02      0.1790939005E-01
          0                 7           1             7    3     1       0.7167109588E-04       7    3    1         0.1868603055E-02      0.8015452128E-02
          0                 8           1             7    3     1       0.3205867729E-04       7    3    1         0.8358436961E-03      0.3587846280E-02
          0                 9           1             7    3     1       0.1433967960E-04       7    3    1         0.3738739284E-03      0.1606080326E-02
          0                10           1             7    3     1       0.6413954142E-05       7    3    1         0.1672313249E-03      0.7189910463E-03

    ------------------------------------------------
       NWT REQUIRED           10 OUTER ITERATIONS 
       AND A TOTAL OF         16 INNER ITERATIONS.
    ------------------------------------------------

 NO OUTPUT CONTROL FOR STRESS PERIOD    4   TIME STEP    3
 
 SOLVING FOR HEAD 
                                                   Max.-Head-Change                         Max.-Flux-Residual
  Residual-Control   Outer-Iter.   Inner-Iter.     Column Row Layer    Maximum-Head-Change  Column Row Layer    Maximum-Flux-Residual          L2-NORM 
          0                 1           2             2   13     1       0.1104061387E-01       2   13    1         0.6280388004E+00      0.2095159825E+01
          0                 2           2             7    3     1       0.3982488654E-02       7    3    1         0.1038221141E+00      0.5417971605E+00
          0                 3           2             7    3     1       0.1781579451E-02       7    3    1         0.4644552849E-01      0.2061910018E+00
          0                 4           2             7    3     1       0.7969833728E-03       7    3    1         0.2077752669E-01      0.8968490664E-01
          0                 5           2             7    3     1       0.3565211961E-03       7    3    1         0.9294726711E-02      0.3996549120E-01
          0                 6           2             7    3     1       0.1594825304E-03       7    3    1         0.4157873146E-02      0.1787623081E-01
          0                 7           1             7    3     1       0.7133991447E-04       7    3    1         0.1859933733E-02      0.8000720616E-02
          0                 8           1             7    3     1       0.3191125946E-04       7    3    1         0.8319848695E-03      0.3581298692E-02
          0                 9           1             7    3     1       0.1427405722E-04       7    3    1         0.3721562431E-03      0.1603170919E-02
          0                10           1             7    3     1       0.6384741423E-05       7    3    1         0.1664666980E-03      0.7176978367E-03

    ------------------------------------------------
       NWT REQUIRED           10 OUTER ITERATIONS 
       AND A TOTAL OF         16 INNER ITERATIONS.
    ------------------------------------------------

 NO OUTPUT CONTROL FOR STRESS PERIOD    4   TIME STEP    4
 
 SOLVING FOR HEAD 
                                                   Max.-Head-Change                         Max.-Flux-Residual
  Residual-Control   Outer-Iter.   Inner-Iter.     Column Row Layer    Maximum-Head-Change  Column Row Layer    Maximum-Flux-Residual          L2-NORM 
          0                 1           2             2   13     1       0.9617277166E-02       2   13    1         0.5465153011E+00      0.2068207887E+01
          0                 2           2             7    3     1       0.3963650623E-02       7    3    1         0.1033289163E+00      0.5388860384E+00
          0                 3           2             7    3     1       0.1773195721E-02       7    3    1         0.4622604088E-01      0.2056917448E+00
          0                 4           2             7    3     1       0.7932521045E-03       7    3    1         0.2067984463E-01      0.8951040953E-01
          0                 5           2             7    3     1       0.3548604863E-03       7    3    1         0.9251251935E-02      0.3989037626E-01
          0                 6           2             7    3     1       0.1587433523E-03       7    3    1         0.4138523282E-02      0.1784297363E-01
          0                 7           1             7    3     1       0.7101089489E-04       7    3    1         0.1851321091E-02      0.7985945076E-02
          0                 8           1             7    3     1       0.3176480144E-04       7    3    1         0.8281512135E-03      0.3574733707E-02
          0                 9           1             7    3     1       0.1420886114E-04       7    3    1         0.3704497414E-03      0.1600253401E-02
          0                10           1             7    3     1       0.6355718037E-05       7    3    1         0.1657070417E-03      0.7164009849E-03

    ------------------------------------------------
       NWT REQUIRED           10 OUTER ITERATIONS 
       AND A TOTAL OF         16 INNER ITERATIONS.
    ------------------------------------------------

 OUTPUT CONTROL FOR STRESS PERIOD    4   TIME STEP    5
    PRINT BUDGET
    SAVE BUDGET
 UBUDSV SAVING "         STORAGE" ON UNIT102 AT TIME STEP     5, STRESS PERIOD    4
 UBUDSV SAVING "   CONSTANT HEAD" ON UNIT102 AT TIME STEP     5, STRESS PERIOD    4
 UBUDSV SAVING "FLOW RIGHT FACE " ON UNIT102 AT TIME STEP     5, STRESS PERIOD    4
 UBUDSV SAVING "FLOW FRONT FACE " ON UNIT102 AT TIME STEP     5, STRESS PERIOD    4

  HEAD DEP BOUNDS   PERIOD    4   STEP     5
 BOUNDARY      1   LAYER   1   ROW    13   COL     1   RATE   -0.291934    
 BOUNDARY      2   LAYER   1   ROW    14   COL     9   RATE     1.06045    



 STREAM LISTING     PERIOD      4   STEP        5

 LAYER ROW COL. STREAM  RCH.  FLOW INTO     FLOW TO   FLOW OUT OF   OVRLND.     DIRECT     STREAM       STREAM     STREAM     STREAM   STREAMBED  STREAMBED
                SEG.NO.  NO.  STRM. RCH.    AQUIFER    STRM. RCH.    RUNOFF     PRECIP       ET          HEAD       DEPTH      WIDTH   CONDCTNC.   GRADIENT

   1    1    1     1     1    7.7000E+01  4.2703E-08   7.7000E+01  0.000E+00  0.000E+00  0.000E+00  1.09476E+03  1.708E+00  2.016E+01  9.070E-09  1.569E+00
   1    2    2     1     2    7.7000E+01  6.6386E-09   7.7000E+01  0.000E+00  0.000E+00  0.000E+00  1.08977E+03  1.707E+00  2.015E+01  1.410E-09  1.569E+00
   1    3    3     1     3    7.7000E+01  5.6917E-09   7.7000E+01  0.000E+00  0.000E+00  0.000E+00  1.08413E+03  1.708E+00  2.015E+01  1.209E-09  1.569E+00
   1    3    4     1     4    7.7000E+01  5.2654E-09   7.7000E+01  0.000E+00  0.000E+00  0.000E+00  1.07912E+03  1.708E+00  2.015E+01  1.118E-09  1.569E+00
   1    4    5     2     1    7.5000E+01  4.1578E-01   7.4584E+01  0.000E+00  0.000E+00  0.000E+00  1.07426E+03  2.331E+00  1.200E+01  7.800E-02  1.777E+00
   1    5    6     2     2    7.4584E+01  3.1942E-01   7.4265E+01  0.000E+00  0.000E+00  0.000E+00  1.06883E+03  2.324E+00  1.200E+01  6.000E-02  1.775E+00
   1    6    6     2     3    7.4265E+01  3.1906E-01   7.3946E+01  0.000E+00  0.000E+00  0.000E+00  1.06411E+03  2.318E+00  1.200E+01  6.000E-02  1.773E+00
   1    7    6     2     4    7.3946E+01  3.1870E-01   7.3627E+01  0.000E+00  0.000E+00  0.000E+00  1.05939E+03  2.312E+00  1.200E+01  6.000E-02  1.771E+00
   1    8    6     2     5    7.3627E+01  3.1834E-01   7.3309E+01  0.000E+00  0.000E+00  0.000E+00  1.05466E+03  2.306E+00  1.200E+01  6.000E-02  1.769E+00
   1    3    5     3     1    2.0000E+00  2.8252E-01   1.7175E+00  0.000E+00  0.000E+00  0.000E+00  1.07555E+03  1.909E+00  9.636E+00  7.227E-02  1.955E+00
   1    3    6     3     2    1.7175E+00  2.4905E-01   1.4684E+00  0.000E+00  0.000E+00  0.000E+00  1.07264E+03  1.727E+00  8.909E+00  6.682E-02  1.864E+00
   1    3    7     3     3    1.4684E+00  1.9718E-01   1.2712E+00  0.000E+00  0.000E+00  0.000E+00  1.06987E+03  1.555E+00  8.218E+00  5.547E-02  1.777E+00
   1    4    8     3     4    1.2712E+00  2.2567E-01   1.0456E+00  0.000E+00  0.000E+00  0.000E+00  1.06682E+03  1.364E+00  7.455E+00  6.709E-02  1.682E+00
   1    5    8     3     5    1.0456E+00  1.5790E-01   8.8768E-01  0.000E+00  0.000E+00  0.000E+00  1.06362E+03  1.164E+00  6.655E+00  4.991E-02  1.582E+00
   1    6    8     3     6    8.8768E-01  5.5980E-02   8.3170E-01  0.000E+00  0.000E+00  0.000E+00  1.06158E+03  1.036E+00  6.145E+00  1.844E-02  1.518E+00
   1    5   10     4     1    1.0000E+01  9.0919E-02   9.9091E+00  0.000E+00  0.000E+00  0.000E+00  1.07836E+03  6.368E-01  1.000E+01  2.500E-02  1.212E+00
   1    5    9     4     2    9.9091E+00  1.8158E-01   9.7275E+00  0.000E+00  0.000E+00  0.000E+00  1.07154E+03  6.315E-01  1.000E+01  5.000E-02  1.211E+00
   1    6    8     4     3    9.7275E+00  1.2689E-01   9.6006E+00  0.000E+00  0.000E+00  0.000E+00  1.06381E+03  6.256E-01  1.000E+01  3.500E-02  1.209E+00
   1    6    8     5     1    1.0432E+01  2.2686E-09   1.0432E+01  0.000E+00  0.000E+00  0.000E+00  1.05868E+03  6.790E-01  1.542E+01  6.166E-10  1.226E+00
   1    7    7     5     2    1.0432E+01  2.8306E-09   1.0432E+01  0.000E+00  0.000E+00  0.000E+00  1.05418E+03  6.784E-01  1.539E+01  7.695E-10  1.226E+00
   1    8    7     5     3    1.0432E+01  1.9868E-09   1.0432E+01  0.000E+00  0.000E+00  0.000E+00  1.04993E+03  6.794E-01  1.543E+01  5.400E-10  1.226E+00
   1    8    6     5     4    1.0432E+01  1.4217E-09   1.0432E+01  0.000E+00  0.000E+00  0.000E+00  1.04693E+03  6.800E-01  1.545E+01  3.863E-10  1.227E+00
   1    9    6     6     1    8.3741E+01  3.3114E-01   8.3410E+01  0.000E+00  0.000E+00  0.000E+00  1.04525E+03  2.519E+00  1.200E+01  6.000E-02  1.840E+00
   1   10    7     6     2    8.3410E+01  3.3078E-01   8.3079E+01  0.000E+00  0.000E+00  0.000E+00  1.04069E+03  2.513E+00  1.200E+01  6.000E-02  1.838E+00
   1   11    7     6     3    8.3079E+01  3.3042E-01   8.2749E+01  0.000E+00  0.000E+00  0.000E+00  1.03614E+03  2.507E+00  1.200E+01  6.000E-02  1.836E+00
   1   12    7     6     4    8.2749E+01  3.3006E-01   8.2419E+01  0.000E+00  0.000E+00  0.000E+00  1.03159E+03  2.501E+00  1.200E+01  6.000E-02  1.834E+00
   1   13    7     6     5    8.2419E+01  1.3192E-01   8.2287E+01  0.000E+00  0.000E+00  0.000E+00  1.02841E+03  2.497E+00  1.200E+01  2.400E-02  1.832E+00
   1   14    9     7     1    1.5000E+02  2.9539E-08   1.5000E+02  0.000E+00  0.000E+00  0.000E+00  1.03986E+03  2.283E+00  5.528E+01  5.591E-09  1.761E+00
   1   13    8     7     2    1.5000E+02  3.2486E-14   1.5000E+02  0.000E+00  0.000E+00  0.000E+00  1.03478E+03  2.283E+00  5.527E+01  6.150E-15  1.761E+00
   1   13    7     7     3    1.5000E+02  2.9539E-08   1.5000E+02  0.000E+00  0.000E+00  0.000E+00  1.02970E+03  2.283E+00  5.528E+01  5.591E-09  1.761E+00
   1   13    6     8     1    2.3229E+02  3.0987E-29   2.3229E+02  0.000E+00  0.000E+00  0.000E+00  1.02519E+03  3.319E+00  4.812E+01  4.904E-30  2.106E+00
   1   13    5     8     2    2.3229E+02  3.0869E-12   2.3229E+02  0.000E+00  0.000E+00  0.000E+00  1.01894E+03  3.311E+00  4.800E+01  4.892E-13  2.104E+00
   1   13    4     8     3    2.3229E+02  2.7735E-16   2.3229E+02  0.000E+00  0.000E+00  0.000E+00  1.01269E+03  3.311E+00  4.802E+01  4.893E-17  1.889E+00
   1   13    3     8     4    2.3229E+02  8.3386E-11   2.3229E+02  0.000E+00  0.000E+00  0.000E+00  1.00644E+03  3.317E+00  4.809E+01  4.901E-11  5.672E-01
   1   13    2     8     5    2.3229E+02 -6.5822E-01   2.3294E+02  0.000E+00  0.000E+00  0.000E+00  1.00020E+03  3.321E+00  4.815E+01  4.907E+00 -4.472E-02
   1   13    1     8     6    2.3294E+02 -1.4193E+00   2.3436E+02  0.000E+00  0.000E+00  0.000E+00  9.95201E+02  3.326E+00  4.823E+01  2.949E+00 -1.604E-01
   1    6    8     9     1    0.0000E+00  0.0000E+00   0.0000E+00  0.000E+00  0.000E+00  0.000E+00  1.07850E+03  0.000E+00  4.000E+00  0.000E+00  1.000E+00



 UBDSV3 SAVING "     NETRECHARGE" ON UNIT 100 AT TIME STEP     5, STRESS PERIOD   4
 UBDSV3 SAVING "    NETDISCHARGE" ON UNIT 101 AT TIME STEP     5, STRESS PERIOD   4
 UBDSV3 SAVING "           GW ET" ON UNIT  61 AT TIME STEP     5, STRESS PERIOD   4
 UBDSV3 SAVING "    UZF RECHARGE" ON UNIT  61 AT TIME STEP     5, STRESS PERIOD   4
 UBDSV3 SAVING " SURFACE LEAKAGE" ON UNIT  61 AT TIME STEP     5, STRESS PERIOD   4
 UBDSV3 SAVING "       HORT+DUNN" ON UNIT  61 AT TIME STEP     5, STRESS PERIOD   4
 UBDSV3 SAVING "  STORAGE CHANGE" ON UNIT  61 AT TIME STEP     5, STRESS PERIOD   4


UNSATURATED ZONE PACKAGE VOLUMETRIC BUDGET FOR  TIME STEP     5 STRESS PERIOD    4
  ------------------------------------------------------------------------------



     CUMULATIVE VOLUMES      L**3       RATES FOR THIS TIME STEP      L**3/T
     ------------------                 ------------------------

           IN:                                      IN:
           ---                                      ---
        INFILTRATION =     7052895.0000          INFILTRATION =           0.8475

          OUT:                                     OUT:
          ----                                     ----
              UZF ET =     1629193.1241                UZF ET =           0.2859
        UZF RECHARGE =   167997185.4104          UZF RECHARGE =          28.7745

            IN - OUT =  -162573483.5345              IN - OUT =         -28.2129

          STORAGE:                                 STORAGE:
          --------                                 --------
      STORAGE CHANGE =  -162572810.2431        STORAGE CHANGE =         -28.2129

 PERCENT DISCREPANCY IS DIFFERENCE BETWEEN IN-OUT MINUS CHANGE IN STORAGE
 DIVIDED BY THE AVERAGE OF IN AND OUT TIMES 100

 PERCENT DISCREPANCY =          -0.00     PERCENT DISCREPANCY =          -0.00






1
  VOLUMETRIC BUDGET FOR ENTIRE MODEL AT END OF TIME STEP    5, STRESS PERIOD   4
  ------------------------------------------------------------------------------

     CUMULATIVE VOLUMES      L**3       RATES FOR THIS TIME STEP      L**3/T
     ------------------                 ------------------------

           IN:                                      IN:
           ---                                      ---
             STORAGE =           0.0000               STORAGE =           0.0000
       CONSTANT HEAD =           0.0000         CONSTANT HEAD =           0.0000
               WELLS =           0.0000                 WELLS =           0.0000
     HEAD DEP BOUNDS =     8875488.0000       HEAD DEP BOUNDS =           1.0605
      STREAM LEAKAGE =    27439526.0000        STREAM LEAKAGE =           4.7133
        UZF RECHARGE =   167997152.0000          UZF RECHARGE =          28.7745
               GW ET =           0.0000                 GW ET =           0.0000
     SURFACE LEAKAGE =           0.0000       SURFACE LEAKAGE =           0.0000

            TOTAL IN =   204312160.0000              TOTAL IN =          34.5483

          OUT:                                     OUT:
          ----                                     ----
             STORAGE =   179740336.0000               STORAGE =          32.1723
       CONSTANT HEAD =           0.0000         CONSTANT HEAD =           0.0000
               WELLS =           0.0000                 WELLS =           0.0000
     HEAD DEP BOUNDS =     2367803.2500       HEAD DEP BOUNDS =           0.2919
      STREAM LEAKAGE =    20196108.0000        STREAM LEAKAGE =           2.0775
        UZF RECHARGE =           0.0000          UZF RECHARGE =           0.0000
               GW ET =     1993066.7500                 GW ET =       4.1141E-03
     SURFACE LEAKAGE =           0.0000       SURFACE LEAKAGE =           0.0000

           TOTAL OUT =   204297328.0000             TOTAL OUT =          34.5459

            IN - OUT =       14832.0000              IN - OUT =       2.4109E-03

 PERCENT DISCREPANCY =           0.01     PERCENT DISCREPANCY =           0.01






         TIME SUMMARY AT END OF TIME STEP    5 IN STRESS PERIOD    4
                    SECONDS     MINUTES      HOURS       DAYS        YEARS
                    -----------------------------------------------------------
   TIME STEP LENGTH  87600.      1460.0      24.333      1.0139     2.77588E-03
 STRESS PERIOD TIME 4.38000E+05  7300.0      121.67      5.0694     1.38794E-02
         TOTAL TIME 8.32200E+06 1.38700E+05  2311.7      96.319     0.26371    
1
 
 SOLVING FOR HEAD 
                                                   Max.-Head-Change                         Max.-Flux-Residual
  Residual-Control   Outer-Iter.   Inner-Iter.     Column Row Layer    Maximum-Head-Change  Column Row Layer    Maximum-Flux-Residual          L2-NORM 
          0                 1           2             7    3     1       0.8818381099E-02       2   13    1         0.4869493488E+00      0.2048904850E+01
          0                 2           2             7    3     1       0.3945149259E-02       7    3    1         0.1028445510E+00      0.5369163626E+00
          0                 3           2             7    3     1       0.1764961440E-02       7    3    1         0.4601047406E-01      0.2052601137E+00
          0                 4           2             7    3     1       0.7895871801E-03       7    3    1         0.2058390304E-01      0.8934024602E-01
          0                 5           2             7    3     1       0.3532292298E-03       7    3    1         0.9208549807E-02      0.3981571934E-01
          0                 6           2             7    3     1       0.1580172506E-03       7    3    1         0.4119516433E-02      0.1780983332E-01
          0                 7           1             7    3     1       0.7068768064E-04       7    3    1         0.1842860735E-02      0.7971219771E-02
          0                 8           1             7    3     1       0.3162092131E-04       7    3    1         0.8243851751E-03      0.3568188163E-02
          0                 9           1             7    3     1       0.1414480958E-04       7    3    1         0.3687732622E-03      0.1597343655E-02
          0                10           1             7    3     1       0.6327203252E-05       7    3    1         0.1649607167E-03      0.7151078547E-03

    ------------------------------------------------
       NWT REQUIRED           10 OUTER ITERATIONS 
       AND A TOTAL OF         16 INNER ITERATIONS.
    ------------------------------------------------

 NO OUTPUT CONTROL FOR STRESS PERIOD    4   TIME STEP    6
 
 SOLVING FOR HEAD 
                                                   Max.-Head-Change                         Max.-Flux-Residual
  Residual-Control   Outer-Iter.   Inner-Iter.     Column Row Layer    Maximum-Head-Change  Column Row Layer    Maximum-Flux-Residual          L2-NORM 
          0                 1           2             7    3     1       0.8777229550E-02       2   13    1         0.4345425234E+00      0.2032965684E+01
          0                 2           2             7    3     1       0.3926834425E-02       7    3    1         0.1023650783E+00      0.5352783192E+00
          0                 3           2             7    3     1       0.1756809982E-02       7    3    1         0.4579707964E-01      0.2048537786E+00
          0                 4           2             7    3     1       0.7859590319E-03       7    3    1         0.2048892603E-01      0.8917240410E-01
          0                 5           2             7    3     1       0.3516143042E-03       7    3    1         0.9166275992E-02      0.3974150145E-01
          0                 6           2             7    3     1       0.1572984012E-03       7    3    1         0.4100699785E-02      0.1777685407E-01
          0                 7           1             7    3     1       0.7036768732E-04       7    3    1         0.1834484847E-02      0.7956559505E-02
          0                 8           1             7    3     1       0.3147847181E-04       7    3    1         0.8206566524E-03      0.3561671415E-02
          0                 9           1             7    3     1       0.1408139380E-04       7    3    1         0.3671134454E-03      0.1594446885E-02
          0                10           1             7    3     1       0.6298970467E-05       7    3    1         0.1642217900E-03      0.7138199916E-03

    ------------------------------------------------
       NWT REQUIRED           10 OUTER ITERATIONS 
       AND A TOTAL OF         16 INNER ITERATIONS.
    ------------------------------------------------

 NO OUTPUT CONTROL FOR STRESS PERIOD    4   TIME STEP    7
 
 SOLVING FOR HEAD 
                                                   Max.-Head-Change                         Max.-Flux-Residual
  Residual-Control   Outer-Iter.   Inner-Iter.     Column Row Layer    Maximum-Head-Change  Column Row Layer    Maximum-Flux-Residual          L2-NORM 
          0                 1           2             7    3     1       0.8736649206E-02       2   13    1         0.3882043990E+00      0.2020512208E+01
          0                 2           2             7    3     1       0.3908772788E-02       7    3    1         0.1018922562E+00      0.5339055944E+00
          0                 3           2             7    3     1       0.1748770760E-02       7    3    1         0.4558663313E-01      0.2044633580E+00
          0                 4           2             7    3     1       0.7823806389E-03       7    3    1         0.2039525579E-01      0.8900614177E-01
          0                 5           2             7    3     1       0.3500214365E-03       7    3    1         0.9124581473E-02      0.3966770230E-01
          0                 6           2             7    3     1       0.1565893323E-03       7    3    1         0.4082139967E-02      0.1774404340E-01
          0                 7           1             7    3     1       0.7005203055E-04       7    3    1         0.1826222828E-02      0.7941972224E-02
          0                 8           1             7    3     1       0.3133794505E-04       7    3    1         0.8169786181E-03      0.3555186597E-02
          0                 9           1             7    3     1       0.1401883103E-04       7    3    1         0.3654760193E-03      0.1591564545E-02
          0                10           1             7    3     1       0.6271115726E-05       7    3    1         0.1634927887E-03      0.7125387418E-03

    ------------------------------------------------
       NWT REQUIRED           10 OUTER ITERATIONS 
       AND A TOTAL OF         16 INNER ITERATIONS.
    ------------------------------------------------

 NO OUTPUT CONTROL FOR STRESS PERIOD    4   TIME STEP    8
 
 SOLVING FOR HEAD 
                                                   Max.-Head-Change                         Max.-Flux-Residual
  Residual-Control   Outer-Iter.   Inner-Iter.     Column Row Layer    Maximum-Head-Change  Column Row Layer    Maximum-Flux-Residual          L2-NORM 
          0                 1           2             7    3     1       0.8696627673E-02       6    4    1         0.3600059465E+00      0.2010293777E+01
          0                 2           2             7    3     1       0.3890959612E-02       7    3    1         0.1014259438E+00      0.5326918173E+00
          0                 3           2             7    3     1       0.1740842009E-02       7    3    1         0.4537908104E-01      0.2040827557E+00
          0                 4           2             7    3     1       0.7788513639E-03       7    3    1         0.2030287244E-01      0.8884113983E-01
          0                 5           2             7    3     1       0.3484504089E-03       7    3    1         0.9083459151E-02      0.3959433729E-01
          0                 6           2             7    3     1       0.1558899737E-03       7    3    1         0.4063834567E-02      0.1771141340E-01
          0                 7           1             7    3     1       0.6974069220E-04       7    3    1         0.1818073946E-02      0.7927465161E-02
          0                 8           1             7    3     1       0.3119933889E-04       7    3    1         0.8133508924E-03      0.3548736708E-02
          0                 9           1             7    3     1       0.1395712150E-04       7    3    1         0.3638609621E-03      0.1588695478E-02
          0                10           1             7    3     1       0.6243641403E-05       7    3    1         0.1627737458E-03      0.7112628569E-03

    ------------------------------------------------
       NWT REQUIRED           10 OUTER ITERATIONS 
       AND A TOTAL OF         16 INNER ITERATIONS.
    ------------------------------------------------

 NO OUTPUT CONTROL FOR STRESS PERIOD    4   TIME STEP    9
 
 SOLVING FOR HEAD 
                                                   Max.-Head-Change                         Max.-Flux-Residual
  Residual-Control   Outer-Iter.   Inner-Iter.     Column Row Layer    Maximum-Head-Change  Column Row Layer    Maximum-Flux-Residual          L2-NORM 
          0                 1           2             7    3     1       0.8657152359E-02       6    4    1         0.3605186950E+00      0.2000343467E+01
          0                 2           2             7    3     1       0.3873388340E-02       7    3    1         0.1009659900E+00      0.5313538714E+00
          0                 3           2             7    3     1       0.1733020393E-02       7    3    1         0.4517434491E-01      0.2036900091E+00
          0                 4           2             7    3     1       0.7753695409E-03       7    3    1         0.2021173627E-01      0.8867583480E-01
          0                 5           2             7    3     1       0.3469004006E-03       7    3    1         0.9042889227E-02      0.3952116825E-01
          0                 6           2             7    3     1       0.1551999267E-03       7    3    1         0.4045773856E-02      0.1767889162E-01
          0                 7           1             7    3     1       0.6943347881E-04       7    3    1         0.1810033457E-02      0.7913004624E-02
          0                 8           1             7    3     1       0.3106256028E-04       7    3    1         0.8097711925E-03      0.3542306367E-02
          0                 9           1             7    3     1       0.1389622234E-04       7    3    1         0.3622671850E-03      0.1585836022E-02
          0                10           1             7    3     1       0.6216525364E-05       7    3    1         0.1620641262E-03      0.7099911143E-03

    ------------------------------------------------
       NWT REQUIRED           10 OUTER ITERATIONS 
       AND A TOTAL OF         16 INNER ITERATIONS.
    ------------------------------------------------

 OUTPUT CONTROL FOR STRESS PERIOD    4   TIME STEP   10
    PRINT BUDGET
    SAVE BUDGET
 UBUDSV SAVING "         STORAGE" ON UNIT102 AT TIME STEP    10, STRESS PERIOD    4
 UBUDSV SAVING "   CONSTANT HEAD" ON UNIT102 AT TIME STEP    10, STRESS PERIOD    4
 UBUDSV SAVING "FLOW RIGHT FACE " ON UNIT102 AT TIME STEP    10, STRESS PERIOD    4
 UBUDSV SAVING "FLOW FRONT FACE " ON UNIT102 AT TIME STEP    10, STRESS PERIOD    4

  HEAD DEP BOUNDS   PERIOD    4   STEP    10
 BOUNDARY      1   LAYER   1   ROW    13   COL     1   RATE   -0.293218    
 BOUNDARY      2   LAYER   1   ROW    14   COL     9   RATE     1.05971    



 STREAM LISTING     PERIOD      4   STEP       10

 LAYER ROW COL. STREAM  RCH.  FLOW INTO     FLOW TO   FLOW OUT OF   OVRLND.     DIRECT     STREAM       STREAM     STREAM     STREAM   STREAMBED  STREAMBED
                SEG.NO.  NO.  STRM. RCH.    AQUIFER    STRM. RCH.    RUNOFF     PRECIP       ET          HEAD       DEPTH      WIDTH   CONDCTNC.   GRADIENT

   1    1    1     1     1    7.7000E+01  4.2703E-08   7.7000E+01  0.000E+00  0.000E+00  0.000E+00  1.09476E+03  1.708E+00  2.016E+01  9.070E-09  1.569E+00
   1    2    2     1     2    7.7000E+01  6.6386E-09   7.7000E+01  0.000E+00  0.000E+00  0.000E+00  1.08977E+03  1.707E+00  2.015E+01  1.410E-09  1.569E+00
   1    3    3     1     3    7.7000E+01  5.6917E-09   7.7000E+01  0.000E+00  0.000E+00  0.000E+00  1.08413E+03  1.708E+00  2.015E+01  1.209E-09  1.569E+00
   1    3    4     1     4    7.7000E+01  5.2654E-09   7.7000E+01  0.000E+00  0.000E+00  0.000E+00  1.07912E+03  1.708E+00  2.015E+01  1.118E-09  1.569E+00
   1    4    5     2     1    7.5000E+01  4.1578E-01   7.4584E+01  0.000E+00  0.000E+00  0.000E+00  1.07426E+03  2.331E+00  1.200E+01  7.800E-02  1.777E+00
   1    5    6     2     2    7.4584E+01  3.1942E-01   7.4265E+01  0.000E+00  0.000E+00  0.000E+00  1.06883E+03  2.324E+00  1.200E+01  6.000E-02  1.775E+00
   1    6    6     2     3    7.4265E+01  3.1906E-01   7.3946E+01  0.000E+00  0.000E+00  0.000E+00  1.06411E+03  2.318E+00  1.200E+01  6.000E-02  1.773E+00
   1    7    6     2     4    7.3946E+01  3.1870E-01   7.3627E+01  0.000E+00  0.000E+00  0.000E+00  1.05939E+03  2.312E+00  1.200E+01  6.000E-02  1.771E+00
   1    8    6     2     5    7.3627E+01  3.1834E-01   7.3309E+01  0.000E+00  0.000E+00  0.000E+00  1.05466E+03  2.306E+00  1.200E+01  6.000E-02  1.769E+00
   1    3    5     3     1    2.0000E+00  2.8252E-01   1.7175E+00  0.000E+00  0.000E+00  0.000E+00  1.07555E+03  1.909E+00  9.636E+00  7.227E-02  1.955E+00
   1    3    6     3     2    1.7175E+00  2.4905E-01   1.4684E+00  0.000E+00  0.000E+00  0.000E+00  1.07264E+03  1.727E+00  8.909E+00  6.682E-02  1.864E+00
   1    3    7     3     3    1.4684E+00  1.9718E-01   1.2712E+00  0.000E+00  0.000E+00  0.000E+00  1.06987E+03  1.555E+00  8.218E+00  5.547E-02  1.777E+00
   1    4    8     3     4    1.2712E+00  2.2567E-01   1.0456E+00  0.000E+00  0.000E+00  0.000E+00  1.06682E+03  1.364E+00  7.455E+00  6.709E-02  1.682E+00
   1    5    8     3     5    1.0456E+00  1.5790E-01   8.8768E-01  0.000E+00  0.000E+00  0.000E+00  1.06362E+03  1.164E+00  6.655E+00  4.991E-02  1.582E+00
   1    6    8     3     6    8.8768E-01  5.5980E-02   8.3170E-01  0.000E+00  0.000E+00  0.000E+00  1.06158E+03  1.036E+00  6.145E+00  1.844E-02  1.518E+00
   1    5   10     4     1    1.0000E+01  9.0919E-02   9.9091E+00  0.000E+00  0.000E+00  0.000E+00  1.07836E+03  6.368E-01  1.000E+01  2.500E-02  1.212E+00
   1    5    9     4     2    9.9091E+00  1.8158E-01   9.7275E+00  0.000E+00  0.000E+00  0.000E+00  1.07154E+03  6.315E-01  1.000E+01  5.000E-02  1.211E+00
   1    6    8     4     3    9.7275E+00  1.2689E-01   9.6006E+00  0.000E+00  0.000E+00  0.000E+00  1.06381E+03  6.256E-01  1.000E+01  3.500E-02  1.209E+00
   1    6    8     5     1    1.0432E+01  2.2686E-09   1.0432E+01  0.000E+00  0.000E+00  0.000E+00  1.05868E+03  6.790E-01  1.542E+01  6.166E-10  1.226E+00
   1    7    7     5     2    1.0432E+01  2.8306E-09   1.0432E+01  0.000E+00  0.000E+00  0.000E+00  1.05418E+03  6.784E-01  1.539E+01  7.695E-10  1.226E+00
   1    8    7     5     3    1.0432E+01  1.9868E-09   1.0432E+01  0.000E+00  0.000E+00  0.000E+00  1.04993E+03  6.794E-01  1.543E+01  5.400E-10  1.226E+00
   1    8    6     5     4    1.0432E+01  1.4217E-09   1.0432E+01  0.000E+00  0.000E+00  0.000E+00  1.04693E+03  6.800E-01  1.545E+01  3.863E-10  1.227E+00
   1    9    6     6     1    8.3741E+01  3.3114E-01   8.3410E+01  0.000E+00  0.000E+00  0.000E+00  1.04525E+03  2.519E+00  1.200E+01  6.000E-02  1.840E+00
   1   10    7     6     2    8.3410E+01  3.3078E-01   8.3079E+01  0.000E+00  0.000E+00  0.000E+00  1.04069E+03  2.513E+00  1.200E+01  6.000E-02  1.838E+00
   1   11    7     6     3    8.3079E+01  3.3042E-01   8.2749E+01  0.000E+00  0.000E+00  0.000E+00  1.03614E+03  2.507E+00  1.200E+01  6.000E-02  1.836E+00
   1   12    7     6     4    8.2749E+01  3.3006E-01   8.2419E+01  0.000E+00  0.000E+00  0.000E+00  1.03159E+03  2.501E+00  1.200E+01  6.000E-02  1.834E+00
   1   13    7     6     5    8.2419E+01  1.3192E-01   8.2287E+01  0.000E+00  0.000E+00  0.000E+00  1.02841E+03  2.497E+00  1.200E+01  2.400E-02  1.832E+00
   1   14    9     7     1    1.5000E+02  2.9539E-08   1.5000E+02  0.000E+00  0.000E+00  0.000E+00  1.03986E+03  2.283E+00  5.528E+01  5.591E-09  1.761E+00
   1   13    8     7     2    1.5000E+02  3.2486E-14   1.5000E+02  0.000E+00  0.000E+00  0.000E+00  1.03478E+03  2.283E+00  5.527E+01  6.150E-15  1.761E+00
   1   13    7     7     3    1.5000E+02  2.9539E-08   1.5000E+02  0.000E+00  0.000E+00  0.000E+00  1.02970E+03  2.283E+00  5.528E+01  5.591E-09  1.761E+00
   1   13    6     8     1    2.3229E+02  3.0987E-29   2.3229E+02  0.000E+00  0.000E+00  0.000E+00  1.02519E+03  3.319E+00  4.812E+01  4.904E-30  2.106E+00
   1   13    5     8     2    2.3229E+02  3.0869E-12   2.3229E+02  0.000E+00  0.000E+00  0.000E+00  1.01894E+03  3.311E+00  4.800E+01  4.892E-13  2.104E+00
   1   13    4     8     3    2.3229E+02  2.7620E-10   2.3229E+02  0.000E+00  0.000E+00  0.000E+00  1.01269E+03  3.311E+00  4.802E+01  4.893E-11  1.882E+00
   1   13    3     8     4    2.3229E+02  8.2205E-09   2.3229E+02  0.000E+00  0.000E+00  0.000E+00  1.00644E+03  3.317E+00  4.809E+01  4.901E-09  5.591E-01
   1   13    2     8     5    2.3229E+02 -8.5335E-01   2.3314E+02  0.000E+00  0.000E+00  0.000E+00  1.00020E+03  3.321E+00  4.816E+01  4.907E+00 -5.796E-02
   1   13    1     8     6    2.3314E+02 -1.5157E+00   2.3466E+02  0.000E+00  0.000E+00  0.000E+00  9.95202E+02  3.327E+00  4.825E+01  2.950E+00 -1.713E-01
   1    6    8     9     1    0.0000E+00  0.0000E+00   0.0000E+00  0.000E+00  0.000E+00  0.000E+00  1.07850E+03  0.000E+00  4.000E+00  0.000E+00  1.000E+00



 UBDSV3 SAVING "     NETRECHARGE" ON UNIT 100 AT TIME STEP    10, STRESS PERIOD   4
 UBDSV3 SAVING "    NETDISCHARGE" ON UNIT 101 AT TIME STEP    10, STRESS PERIOD   4
 UBDSV3 SAVING "           GW ET" ON UNIT  61 AT TIME STEP    10, STRESS PERIOD   4
 UBDSV3 SAVING "    UZF RECHARGE" ON UNIT  61 AT TIME STEP    10, STRESS PERIOD   4
 UBDSV3 SAVING " SURFACE LEAKAGE" ON UNIT  61 AT TIME STEP    10, STRESS PERIOD   4
 UBDSV3 SAVING "       HORT+DUNN" ON UNIT  61 AT TIME STEP    10, STRESS PERIOD   4
 UBDSV3 SAVING "  STORAGE CHANGE" ON UNIT  61 AT TIME STEP    10, STRESS PERIOD   4


UNSATURATED ZONE PACKAGE VOLUMETRIC BUDGET FOR  TIME STEP    10 STRESS PERIOD    4
  ------------------------------------------------------------------------------



     CUMULATIVE VOLUMES      L**3       RATES FOR THIS TIME STEP      L**3/T
     ------------------                 ------------------------

           IN:                                      IN:
           ---                                      ---
        INFILTRATION =     7424100.0000          INFILTRATION =           0.8475

          OUT:                                     OUT:
          ----                                     ----
              UZF ET =     1754396.6880                UZF ET =           0.2858
        UZF RECHARGE =   180556192.1604          UZF RECHARGE =          28.6119

            IN - OUT =  -174886488.8484              IN - OUT =         -28.0502

          STORAGE:                                 STORAGE:
          --------                                 --------
      STORAGE CHANGE =  -174885811.2663        STORAGE CHANGE =         -28.0502

 PERCENT DISCREPANCY IS DIFFERENCE BETWEEN IN-OUT MINUS CHANGE IN STORAGE
 DIVIDED BY THE AVERAGE OF IN AND OUT TIMES 100

 PERCENT DISCREPANCY =          -0.00     PERCENT DISCREPANCY =          -0.00






1
  VOLUMETRIC BUDGET FOR ENTIRE MODEL AT END OF TIME STEP   10, STRESS PERIOD   4
  ------------------------------------------------------------------------------

     CUMULATIVE VOLUMES      L**3       RATES FOR THIS TIME STEP      L**3/T
     ------------------                 ------------------------

           IN:                                      IN:
           ---                                      ---
             STORAGE =           0.0000               STORAGE =           0.0000
       CONSTANT HEAD =           0.0000         CONSTANT HEAD =           0.0000
               WELLS =           0.0000                 WELLS =           0.0000
     HEAD DEP BOUNDS =     9339773.0000       HEAD DEP BOUNDS =           1.0597
      STREAM LEAKAGE =    29503956.0000        STREAM LEAKAGE =           4.7133
        UZF RECHARGE =   180556160.0000          UZF RECHARGE =          28.6119
               GW ET =           0.0000                 GW ET =           0.0000
     SURFACE LEAKAGE =           0.0000       SURFACE LEAKAGE =           0.0000

            TOTAL IN =   219399888.0000              TOTAL IN =          34.3849

          OUT:                                     OUT:
          ----                                     ----
             STORAGE =   193705440.0000               STORAGE =          31.7160
       CONSTANT HEAD =           0.0000         CONSTANT HEAD =           0.0000
               WELLS =           0.0000                 WELLS =           0.0000
     HEAD DEP BOUNDS =     2496020.7500       HEAD DEP BOUNDS =           0.2932
      STREAM LEAKAGE =    21187624.0000        STREAM LEAKAGE =           2.3691
        UZF RECHARGE =           0.0000          UZF RECHARGE =           0.0000
               GW ET =     1994883.2500                 GW ET =       4.1667E-03
     SURFACE LEAKAGE =           0.0000       SURFACE LEAKAGE =           0.0000

           TOTAL OUT =   219383968.0000             TOTAL OUT =          34.3825

            IN - OUT =       15920.0000              IN - OUT =       2.3918E-03

 PERCENT DISCREPANCY =           0.01     PERCENT DISCREPANCY =           0.01






         TIME SUMMARY AT END OF TIME STEP   10 IN STRESS PERIOD    4
                    SECONDS     MINUTES      HOURS       DAYS        YEARS
                    -----------------------------------------------------------
   TIME STEP LENGTH  87600.      1460.0      24.333      1.0139     2.77588E-03
 STRESS PERIOD TIME 8.76000E+05  14600.      243.33      10.139     2.77588E-02
         TOTAL TIME 8.76000E+06 1.46000E+05  2433.3      101.39     0.27759    
1
 
 SOLVING FOR HEAD 
                                                   Max.-Head-Change                         Max.-Flux-Residual
  Residual-Control   Outer-Iter.   Inner-Iter.     Column Row Layer    Maximum-Head-Change  Column Row Layer    Maximum-Flux-Residual          L2-NORM 
          0                 1           2             7    3     1       0.8618209782E-02       6    4    1         0.3609524708E+00      0.1993157860E+01
          0                 2           2             7    3     1       0.3856053266E-02       7    3    1         0.1005122390E+00      0.5303787237E+00
          0                 3           2             7    3     1       0.1725303503E-02       7    3    1         0.4497235891E-01      0.2033264481E+00
          0                 4           2             7    3     1       0.7719341532E-03       7    3    1         0.2012181944E-01      0.8851339771E-01
          0                 5           2             7    3     1       0.3453709826E-03       7    3    1         0.9002859969E-02      0.3944868640E-01
          0                 6           2             7    3     1       0.1545190110E-03       7    3    1         0.4027952897E-02      0.1764663708E-01
          0                 7           1             7    3     1       0.6913031496E-04       7    3    1         0.1802099287E-02      0.7898660598E-02
          0                 8           1             7    3     1       0.3092757786E-04       7    3    1         0.8062386410E-03      0.3535927865E-02
          0                 9           1             7    3     1       0.1383611941E-04       7    3    1         0.3606943159E-03      0.1583000655E-02
          0                10           1             7    3     1       0.6189762982E-05       7    3    1         0.1613637833E-03      0.7087301676E-03

    ------------------------------------------------
       NWT REQUIRED           10 OUTER ITERATIONS 
       AND A TOTAL OF         16 INNER ITERATIONS.
    ------------------------------------------------

 NO OUTPUT CONTROL FOR STRESS PERIOD    4   TIME STEP   11
 
 SOLVING FOR HEAD 
                                                   Max.-Head-Change                         Max.-Flux-Residual
  Residual-Control   Outer-Iter.   Inner-Iter.     Column Row Layer    Maximum-Head-Change  Column Row Layer    Maximum-Flux-Residual          L2-NORM 
          0                 1           2             7    3     1       0.8579627735E-02       6    4    1         0.3613080633E+00      0.1987744059E+01
          0                 2           2             7    3     1       0.3838878740E-02       7    3    1         0.1000626892E+00      0.5295222038E+00
          0                 3           2             7    3     1       0.1717658104E-02       7    3    1         0.4477224372E-01      0.2029709565E+00
          0                 4           2             7    3     1       0.7685306015E-03       7    3    1         0.2003273568E-01      0.8835248196E-01
          0                 5           2             7    3     1       0.3438557417E-03       7    3    1         0.8963201682E-02      0.3937678014E-01
          0                 6           2             7    3     1       0.1538444089E-03       7    3    1         0.4010297142E-02      0.1761463118E-01
          0                 7           1             7    3     1       0.6882996298E-04       7    3    1         0.1794238689E-02      0.7884425581E-02
          0                 8           1             7    3     1       0.3079384761E-04       7    3    1         0.8027388533E-03      0.3529597092E-02
          0                 9           1             7    3     1       0.1377657434E-04       7    3    1         0.3591360405E-03      0.1580183427E-02
          0                10           1             7    3     1       0.6163248960E-05       7    3    1         0.1606699384E-03      0.7074767099E-03

    ------------------------------------------------
       NWT REQUIRED           10 OUTER ITERATIONS 
       AND A TOTAL OF         16 INNER ITERATIONS.
    ------------------------------------------------

 NO OUTPUT CONTROL FOR STRESS PERIOD    4   TIME STEP   12
 
 SOLVING FOR HEAD 
                                                   Max.-Head-Change                         Max.-Flux-Residual
  Residual-Control   Outer-Iter.   Inner-Iter.     Column Row Layer    Maximum-Head-Change  Column Row Layer    Maximum-Flux-Residual          L2-NORM 
          0                 1           2             7    3     1       0.8541719319E-02       6    4    1         0.3615916328E+00      0.1983217408E+01
          0                 2           2             7    3     1       0.3822002263E-02       7    3    1         0.9962097960E-01      0.5286170177E+00
          0                 3           2             7    3     1       0.1710144585E-02       7    3    1         0.4457559747E-01      0.2026163362E+00
          0                 4           2             7    3     1       0.7651854072E-03       7    3    1         0.1994518686E-01      0.8819277672E-01
          0                 5           2             7    3     1       0.3423663273E-03       7    3    1         0.8924222634E-02      0.3930541728E-01
          0                 6           2             7    3     1       0.1531812367E-03       7    3    1         0.3992941980E-02      0.1758286575E-01
          0                 7           1             7    3     1       0.6853467013E-04       7    3    1         0.1786511132E-02      0.7870294130E-02
          0                 8           1             7    3     1       0.3066235673E-04       7    3    1         0.7992979558E-03      0.3523311180E-02
          0                 9           1             7    3     1       0.1371802085E-04       7    3    1         0.3576038370E-03      0.1577387804E-02
          0                10           1             7    3     1       0.6137173884E-05       7    3    1         0.1599876366E-03      0.7062330917E-03

    ------------------------------------------------
       NWT REQUIRED           10 OUTER ITERATIONS 
       AND A TOTAL OF         16 INNER ITERATIONS.
    ------------------------------------------------

 NO OUTPUT CONTROL FOR STRESS PERIOD    4   TIME STEP   13
 
 SOLVING FOR HEAD 
                                                   Max.-Head-Change                         Max.-Flux-Residual
  Residual-Control   Outer-Iter.   Inner-Iter.     Column Row Layer    Maximum-Head-Change  Column Row Layer    Maximum-Flux-Residual          L2-NORM 
          0                 1           2             7    3     1       0.8504146764E-02       6    4    1         0.3618086623E+00      0.1977164886E+01
          0                 2           2             7    3     1       0.3805275229E-02       7    3    1         0.9918318320E-01      0.5276304477E+00
          0                 3           2             7    3     1       0.1702697559E-02       7    3    1         0.4438069237E-01      0.2022519213E+00
          0                 4           2             7    3     1       0.7618697999E-03       7    3    1         0.1985841276E-01      0.8803280445E-01
          0                 5           2             7    3     1       0.3408900778E-03       7    3    1         0.8885588302E-02      0.3923430138E-01
          0                 6           2             7    3     1       0.1525239229E-03       7    3    1         0.3975740212E-02      0.1755122979E-01
          0                 7           1             7    3     1       0.6824198431E-04       7    3    1         0.1778851834E-02      0.7856221758E-02
          0                 8           1             7    3     1       0.3053202611E-04       7    3    1         0.7958874352E-03      0.3517051311E-02
          0                 9           1             7    3     1       0.1365998358E-04       7    3    1         0.3560851497E-03      0.1574602765E-02
          0                10           1             7    3     1       0.6111328534E-05       7    3    1         0.1593113498E-03      0.7049940171E-03

    ------------------------------------------------
       NWT REQUIRED           10 OUTER ITERATIONS 
       AND A TOTAL OF         16 INNER ITERATIONS.
    ------------------------------------------------

 NO OUTPUT CONTROL FOR STRESS PERIOD    4   TIME STEP   14
 
 SOLVING FOR HEAD 
                                                   Max.-Head-Change                         Max.-Flux-Residual
  Residual-Control   Outer-Iter.   Inner-Iter.     Column Row Layer    Maximum-Head-Change  Column Row Layer    Maximum-Flux-Residual          L2-NORM 
          0                 1           2             7    3     1       0.8467063880E-02       6    4    1         0.3619647038E+00      0.1973953374E+01
          0                 2           2             7    3     1       0.3788765339E-02       7    3    1         0.9875108836E-01      0.5269182506E+00
          0                 3           2             7    3     1       0.1695346831E-02       7    3    1         0.4418831564E-01      0.2019094117E+00
          0                 4           2             7    3     1       0.7585969009E-03       7    3    1         0.1977275994E-01      0.8787555970E-01
          0                 5           2             7    3     1       0.3394327708E-03       7    3    1         0.8847451260E-02      0.3916393159E-01
          0                 6           2             7    3     1       0.1518750118E-03       7    3    1         0.3958759014E-02      0.1751989560E-01
          0                 7           1             7    3     1       0.6795302602E-04       7    3    1         0.1771290374E-02      0.7842279609E-02
          0                 8           1             7    3     1       0.3040334924E-04       7    3    1         0.7925203123E-03      0.3510848331E-02
          0                 9           1             7    3     1       0.1360268026E-04       7    3    1         0.3545857140E-03      0.1571842747E-02
          0                10           1             7    3     1       0.6085808328E-05       7    3    1         0.1586435986E-03      0.7037661135E-03

    ------------------------------------------------
       NWT REQUIRED           10 OUTER ITERATIONS 
       AND A TOTAL OF         16 INNER ITERATIONS.
    ------------------------------------------------

 OUTPUT CONTROL FOR STRESS PERIOD    4   TIME STEP   15
    PRINT BUDGET
    PRINT HEAD FOR ALL LAYERS
    SAVE HEAD FOR ALL LAYERS
    SAVE BUDGET
 UBUDSV SAVING "         STORAGE" ON UNIT102 AT TIME STEP    15, STRESS PERIOD    4
 UBUDSV SAVING "   CONSTANT HEAD" ON UNIT102 AT TIME STEP    15, STRESS PERIOD    4
 UBUDSV SAVING "FLOW RIGHT FACE " ON UNIT102 AT TIME STEP    15, STRESS PERIOD    4
 UBUDSV SAVING "FLOW FRONT FACE " ON UNIT102 AT TIME STEP    15, STRESS PERIOD    4

  HEAD DEP BOUNDS   PERIOD    4   STEP    15
 BOUNDARY      1   LAYER   1   ROW    13   COL     1   RATE   -0.294156    
 BOUNDARY      2   LAYER   1   ROW    14   COL     9   RATE     1.05896    



 STREAM LISTING     PERIOD      4   STEP       15

 LAYER ROW COL. STREAM  RCH.  FLOW INTO     FLOW TO   FLOW OUT OF   OVRLND.     DIRECT     STREAM       STREAM     STREAM     STREAM   STREAMBED  STREAMBED
                SEG.NO.  NO.  STRM. RCH.    AQUIFER    STRM. RCH.    RUNOFF     PRECIP       ET          HEAD       DEPTH      WIDTH   CONDCTNC.   GRADIENT

   1    1    1     1     1    7.7000E+01  4.2703E-08   7.7000E+01  0.000E+00  0.000E+00  0.000E+00  1.09476E+03  1.708E+00  2.016E+01  9.070E-09  1.569E+00
   1    2    2     1     2    7.7000E+01  6.6386E-09   7.7000E+01  0.000E+00  0.000E+00  0.000E+00  1.08977E+03  1.707E+00  2.015E+01  1.410E-09  1.569E+00
   1    3    3     1     3    7.7000E+01  5.6917E-09   7.7000E+01  0.000E+00  0.000E+00  0.000E+00  1.08413E+03  1.708E+00  2.015E+01  1.209E-09  1.569E+00
   1    3    4     1     4    7.7000E+01  5.2654E-09   7.7000E+01  0.000E+00  0.000E+00  0.000E+00  1.07912E+03  1.708E+00  2.015E+01  1.118E-09  1.569E+00
   1    4    5     2     1    7.5000E+01  4.1578E-01   7.4584E+01  0.000E+00  0.000E+00  0.000E+00  1.07426E+03  2.331E+00  1.200E+01  7.800E-02  1.777E+00
   1    5    6     2     2    7.4584E+01  3.1942E-01   7.4265E+01  0.000E+00  0.000E+00  0.000E+00  1.06883E+03  2.324E+00  1.200E+01  6.000E-02  1.775E+00
   1    6    6     2     3    7.4265E+01  3.1906E-01   7.3946E+01  0.000E+00  0.000E+00  0.000E+00  1.06411E+03  2.318E+00  1.200E+01  6.000E-02  1.773E+00
   1    7    6     2     4    7.3946E+01  3.1870E-01   7.3627E+01  0.000E+00  0.000E+00  0.000E+00  1.05939E+03  2.312E+00  1.200E+01  6.000E-02  1.771E+00
   1    8    6     2     5    7.3627E+01  3.1834E-01   7.3309E+01  0.000E+00  0.000E+00  0.000E+00  1.05466E+03  2.306E+00  1.200E+01  6.000E-02  1.769E+00
   1    3    5     3     1    2.0000E+00  2.8252E-01   1.7175E+00  0.000E+00  0.000E+00  0.000E+00  1.07555E+03  1.909E+00  9.636E+00  7.227E-02  1.955E+00
   1    3    6     3     2    1.7175E+00  2.4905E-01   1.4684E+00  0.000E+00  0.000E+00  0.000E+00  1.07264E+03  1.727E+00  8.909E+00  6.682E-02  1.864E+00
   1    3    7     3     3    1.4684E+00  1.9718E-01   1.2712E+00  0.000E+00  0.000E+00  0.000E+00  1.06987E+03  1.555E+00  8.218E+00  5.547E-02  1.777E+00
   1    4    8     3     4    1.2712E+00  2.2567E-01   1.0456E+00  0.000E+00  0.000E+00  0.000E+00  1.06682E+03  1.364E+00  7.455E+00  6.709E-02  1.682E+00
   1    5    8     3     5    1.0456E+00  1.5790E-01   8.8768E-01  0.000E+00  0.000E+00  0.000E+00  1.06362E+03  1.164E+00  6.655E+00  4.991E-02  1.582E+00
   1    6    8     3     6    8.8768E-01  5.5980E-02   8.3170E-01  0.000E+00  0.000E+00  0.000E+00  1.06158E+03  1.036E+00  6.145E+00  1.844E-02  1.518E+00
   1    5   10     4     1    1.0000E+01  9.0919E-02   9.9091E+00  0.000E+00  0.000E+00  0.000E+00  1.07836E+03  6.368E-01  1.000E+01  2.500E-02  1.212E+00
   1    5    9     4     2    9.9091E+00  1.8158E-01   9.7275E+00  0.000E+00  0.000E+00  0.000E+00  1.07154E+03  6.315E-01  1.000E+01  5.000E-02  1.211E+00
   1    6    8     4     3    9.7275E+00  1.2689E-01   9.6006E+00  0.000E+00  0.000E+00  0.000E+00  1.06381E+03  6.256E-01  1.000E+01  3.500E-02  1.209E+00
   1    6    8     5     1    1.0432E+01  2.2686E-09   1.0432E+01  0.000E+00  0.000E+00  0.000E+00  1.05868E+03  6.790E-01  1.542E+01  6.166E-10  1.226E+00
   1    7    7     5     2    1.0432E+01  2.8306E-09   1.0432E+01  0.000E+00  0.000E+00  0.000E+00  1.05418E+03  6.784E-01  1.539E+01  7.695E-10  1.226E+00
   1    8    7     5     3    1.0432E+01  1.9868E-09   1.0432E+01  0.000E+00  0.000E+00  0.000E+00  1.04993E+03  6.794E-01  1.543E+01  5.400E-10  1.226E+00
   1    8    6     5     4    1.0432E+01  1.4217E-09   1.0432E+01  0.000E+00  0.000E+00  0.000E+00  1.04693E+03  6.800E-01  1.545E+01  3.863E-10  1.227E+00
   1    9    6     6     1    8.3741E+01  3.3114E-01   8.3410E+01  0.000E+00  0.000E+00  0.000E+00  1.04525E+03  2.519E+00  1.200E+01  6.000E-02  1.840E+00
   1   10    7     6     2    8.3410E+01  3.3078E-01   8.3079E+01  0.000E+00  0.000E+00  0.000E+00  1.04069E+03  2.513E+00  1.200E+01  6.000E-02  1.838E+00
   1   11    7     6     3    8.3079E+01  3.3042E-01   8.2749E+01  0.000E+00  0.000E+00  0.000E+00  1.03614E+03  2.507E+00  1.200E+01  6.000E-02  1.836E+00
   1   12    7     6     4    8.2749E+01  3.3006E-01   8.2419E+01  0.000E+00  0.000E+00  0.000E+00  1.03159E+03  2.501E+00  1.200E+01  6.000E-02  1.834E+00
   1   13    7     6     5    8.2419E+01  1.3192E-01   8.2287E+01  0.000E+00  0.000E+00  0.000E+00  1.02841E+03  2.497E+00  1.200E+01  2.400E-02  1.832E+00
   1   14    9     7     1    1.5000E+02  2.9539E-08   1.5000E+02  0.000E+00  0.000E+00  0.000E+00  1.03986E+03  2.283E+00  5.528E+01  5.591E-09  1.761E+00
   1   13    8     7     2    1.5000E+02  3.2486E-14   1.5000E+02  0.000E+00  0.000E+00  0.000E+00  1.03478E+03  2.283E+00  5.527E+01  6.150E-15  1.761E+00
   1   13    7     7     3    1.5000E+02  2.9539E-08   1.5000E+02  0.000E+00  0.000E+00  0.000E+00  1.02970E+03  2.283E+00  5.528E+01  5.591E-09  1.761E+00
   1   13    6     8     1    2.3229E+02  3.0987E-29   2.3229E+02  0.000E+00  0.000E+00  0.000E+00  1.02519E+03  3.319E+00  4.812E+01  4.904E-30  2.106E+00
   1   13    5     8     2    2.3229E+02  3.0869E-12   2.3229E+02  0.000E+00  0.000E+00  0.000E+00  1.01894E+03  3.311E+00  4.800E+01  4.892E-13  2.104E+00
   1   13    4     8     3    2.3229E+02  2.7505E-16   2.3229E+02  0.000E+00  0.000E+00  0.000E+00  1.01269E+03  3.311E+00  4.802E+01  4.893E-17  1.874E+00
   1   13    3     8     4    2.3229E+02  8.1040E-08   2.3229E+02  0.000E+00  0.000E+00  0.000E+00  1.00644E+03  3.317E+00  4.809E+01  4.901E-08  5.512E-01
   1   13    2     8     5    2.3229E+02 -9.6297E-01   2.3325E+02  0.000E+00  0.000E+00  0.000E+00  1.00020E+03  3.321E+00  4.816E+01  4.908E+00 -6.540E-02
   1   13    1     8     6    2.3325E+02 -1.5866E+00   2.3484E+02  0.000E+00  0.000E+00  0.000E+00  9.95203E+02  3.328E+00  4.826E+01  2.951E+00 -1.792E-01
   1    6    8     9     1    0.0000E+00  0.0000E+00   0.0000E+00  0.000E+00  0.000E+00  0.000E+00  1.07850E+03  0.000E+00  4.000E+00  0.000E+00  1.000E+00



 UBDSV3 SAVING "     NETRECHARGE" ON UNIT 100 AT TIME STEP    15, STRESS PERIOD   4
 UBDSV3 SAVING "    NETDISCHARGE" ON UNIT 101 AT TIME STEP    15, STRESS PERIOD   4
 UBDSV3 SAVING "           GW ET" ON UNIT  61 AT TIME STEP    15, STRESS PERIOD   4
 UBDSV3 SAVING "    UZF RECHARGE" ON UNIT  61 AT TIME STEP    15, STRESS PERIOD   4
 UBDSV3 SAVING " SURFACE LEAKAGE" ON UNIT  61 AT TIME STEP    15, STRESS PERIOD   4
 UBDSV3 SAVING "       HORT+DUNN" ON UNIT  61 AT TIME STEP    15, STRESS PERIOD   4
 UBDSV3 SAVING "  STORAGE CHANGE" ON UNIT  61 AT TIME STEP    15, STRESS PERIOD   4


UNSATURATED ZONE PACKAGE VOLUMETRIC BUDGET FOR  TIME STEP    15 STRESS PERIOD    4
  ------------------------------------------------------------------------------



     CUMULATIVE VOLUMES      L**3       RATES FOR THIS TIME STEP      L**3/T
     ------------------                 ------------------------

           IN:                                      IN:
           ---                                      ---
        INFILTRATION =     7795305.0000          INFILTRATION =           0.8475

          OUT:                                     OUT:
          ----                                     ----
              UZF ET =     1879581.2978                UZF ET =           0.2858
        UZF RECHARGE =   193054624.0789          UZF RECHARGE =          28.4801

            IN - OUT =  -187138900.3767              IN - OUT =         -27.9183

          STORAGE:                                 STORAGE:
          --------                                 --------
      STORAGE CHANGE =  -187138219.6721        STORAGE CHANGE =         -27.9183

 PERCENT DISCREPANCY IS DIFFERENCE BETWEEN IN-OUT MINUS CHANGE IN STORAGE
 DIVIDED BY THE AVERAGE OF IN AND OUT TIMES 100

 PERCENT DISCREPANCY =          -0.00     PERCENT DISCREPANCY =          -0.00






1
              HEAD IN LAYER   1 AT END OF TIME STEP    15 IN STRESS PERIOD    4
  -----------------------------------------------------------------------------

           1       2       3       4       5       6       7       8       9      10
 ...................................................................................
   1  1011.65 1011.51 6999.00 6999.00 6999.00 6999.00 6999.00 6999.00 6999.00 6999.00
   2  1012.20 1011.18 1011.09 6999.00 6999.00 1012.53 1012.58 1012.59 6999.00 6999.00
   3  6999.00 1011.46 1011.09 1011.10 1011.91 1012.33 1012.51 1012.27 6999.00 6999.00
   4  1012.18 1011.67 1011.23 1011.04 1011.24 1011.21 1011.60 1012.48 1012.37 6999.00
   5  1012.12 1011.60 1011.19 1010.89 1010.96 1011.13 1011.17 1011.49 1012.05 1012.69
   6  1012.01 1011.45 1011.05 1010.74 1010.79 1010.99 1011.02 1011.27 1011.93 1012.99
   7  1011.90 1011.21 1010.84 1010.54 1010.60 1010.82 1010.83 1011.02 1011.83 6999.00
   8  6999.00 1010.77 1010.54 1010.28 1010.36 1010.60 1010.63 1011.15 1011.86 6999.00
   9  6999.00 1010.10 1010.03 1009.90 1010.03 1010.34 1010.47 1011.10 1011.94 6999.00
  10  6999.00 1009.12 1009.27 1009.38 1009.62 1010.01 1010.46 1011.14 1012.13 1012.90
  11  6999.00 1007.39 1007.95 1008.66 1009.17 1009.75 1010.43 1011.31 1012.50 6999.00
  12  1000.22 1004.07 1006.27 1007.69 1008.68 1009.57 1010.48 1011.79 1013.65 6999.00
  13   995.74 1000.39 1004.79 1007.07 1008.39 1009.54 1010.82 1012.38 1014.96 6999.00
  14  6999.00 1003.89 1005.60 1007.44 1008.88 1010.19 1011.80 1014.31 1017.13 6999.00
  15  6999.00 6999.00 1007.48 1008.46 1009.52 1010.30 6999.00 6999.00 6999.00 6999.00

 HEAD WILL BE SAVED ON UNIT   62 AT END OF TIME STEP   15, STRESS PERIOD    4
1
  VOLUMETRIC BUDGET FOR ENTIRE MODEL AT END OF TIME STEP   15, STRESS PERIOD   4
  ------------------------------------------------------------------------------

     CUMULATIVE VOLUMES      L**3       RATES FOR THIS TIME STEP      L**3/T
     ------------------                 ------------------------

           IN:                                      IN:
           ---                                      ---
             STORAGE =           0.0000               STORAGE =           0.0000
       CONSTANT HEAD =           0.0000         CONSTANT HEAD =           0.0000
               WELLS =           0.0000                 WELLS =           0.0000
     HEAD DEP BOUNDS =     9803729.0000       HEAD DEP BOUNDS =           1.0590
      STREAM LEAKAGE =    31568386.0000        STREAM LEAKAGE =           4.7133
        UZF RECHARGE =   193054576.0000          UZF RECHARGE =          28.4800
               GW ET =           0.0000                 GW ET =           0.0000
     SURFACE LEAKAGE =           0.0000       SURFACE LEAKAGE =           0.0000

            TOTAL IN =   234426688.0000              TOTAL IN =          34.2523

          OUT:                                     OUT:
          ----                                     ----
             STORAGE =   207512768.0000               STORAGE =          31.4020
       CONSTANT HEAD =           0.0000         CONSTANT HEAD =           0.0000
               WELLS =           0.0000                 WELLS =           0.0000
     HEAD DEP BOUNDS =     2624709.0000       HEAD DEP BOUNDS =           0.2942
      STREAM LEAKAGE =    22275546.0000        STREAM LEAKAGE =           2.5496
        UZF RECHARGE =           0.0000          UZF RECHARGE =           0.0000
               GW ET =     1996718.7500                 GW ET =       4.2046E-03
     SURFACE LEAKAGE =           0.0000       SURFACE LEAKAGE =           0.0000

           TOTAL OUT =   234409744.0000             TOTAL OUT =          34.2500

            IN - OUT =       16944.0000              IN - OUT =       2.3575E-03

 PERCENT DISCREPANCY =           0.01     PERCENT DISCREPANCY =           0.01






         TIME SUMMARY AT END OF TIME STEP   15 IN STRESS PERIOD    4
                    SECONDS     MINUTES      HOURS       DAYS        YEARS
                    -----------------------------------------------------------
   TIME STEP LENGTH  87600.      1460.0      24.333      1.0139     2.77588E-03
 STRESS PERIOD TIME 1.31400E+06  21900.      365.00      15.208     4.16381E-02
         TOTAL TIME 9.19800E+06 1.53300E+05  2555.0      106.46     0.29147    
1
 
 SOLVING FOR HEAD 
                                                   Max.-Head-Change                         Max.-Flux-Residual
  Residual-Control   Outer-Iter.   Inner-Iter.     Column Row Layer    Maximum-Head-Change  Column Row Layer    Maximum-Flux-Residual          L2-NORM 
          0                 1           2             7    3     1       0.8430459456E-02       6    4    1         0.3620702387E+00      0.1971390190E+01
          0                 2           2             7    3     1       0.3772467793E-02       7    3    1         0.9832456538E-01      0.5262519779E+00
          0                 3           2             7    3     1       0.1688090346E-02       7    3    1         0.4399841172E-01      0.2015725404E+00
          0                 4           2             7    3     1       0.7553658305E-03       7    3    1         0.1968820460E-01      0.8772009096E-01
          0                 5           2             7    3     1       0.3379940305E-03       7    3    1         0.8809801341E-02      0.3909431585E-01
          0                 6           2             7    3     1       0.1512343421E-03       7    3    1         0.3941994037E-02      0.1748889148E-01
          0                 7           1             7    3     1       0.6766772623E-04       7    3    1         0.1763824898E-02      0.7828484322E-02
          0                 8           1             7    3     1       0.3027629670E-04       7    3    1         0.7891958046E-03      0.3504709659E-02
          0                 9           1             7    3     1       0.1354609777E-04       7    3    1         0.3531051985E-03      0.1569111262E-02
          0                10           1             7    3     1       0.6060608891E-05       7    3    1         0.1579842538E-03      0.7025529257E-03

    ------------------------------------------------
       NWT REQUIRED           10 OUTER ITERATIONS 
       AND A TOTAL OF         16 INNER ITERATIONS.
    ------------------------------------------------

 NO OUTPUT CONTROL FOR STRESS PERIOD    4   TIME STEP   16
 
 SOLVING FOR HEAD 
                                                   Max.-Head-Change                         Max.-Flux-Residual
  Residual-Control   Outer-Iter.   Inner-Iter.     Column Row Layer    Maximum-Head-Change  Column Row Layer    Maximum-Flux-Residual          L2-NORM 
          0                 1           2             7    3     1       0.8394321669E-02       6    4    1         0.3621180868E+00      0.1969218662E+01
          0                 2           2             7    3     1       0.3756376716E-02       7    3    1         0.9790347354E-01      0.5256115360E+00
          0                 3           2             7    3     1       0.1680925221E-02       7    3    1         0.4381091090E-01      0.2012397369E+00
          0                 4           2             7    3     1       0.7521751897E-03       7    3    1         0.1960471262E-01      0.8756614342E-01
          0                 5           2             7    3     1       0.3365731826E-03       7    3    1         0.8772621988E-02      0.3902535977E-01
          0                 6           2             7    3     1       0.1506015920E-03       7    3    1         0.3925437322E-02      0.1745817828E-01
          0                 7           1             7    3     1       0.6738593199E-04       7    3    1         0.1756451599E-02      0.7814815364E-02
          0                 8           1             7    3     1       0.3015079561E-04       7    3    1         0.7859120988E-03      0.3498627636E-02
          0                 9           1             7    3     1       0.1349020270E-04       7    3    1         0.3516427514E-03      0.1566405103E-02
          0                10           1             7    3     1       0.6035713713E-05       7    3    1         0.1573329045E-03      0.7013460969E-03

    ------------------------------------------------
       NWT REQUIRED           10 OUTER ITERATIONS 
       AND A TOTAL OF         16 INNER ITERATIONS.
    ------------------------------------------------

 NO OUTPUT CONTROL FOR STRESS PERIOD    4   TIME STEP   17
 
 SOLVING FOR HEAD 
                                                   Max.-Head-Change                         Max.-Flux-Residual
  Residual-Control   Outer-Iter.   Inner-Iter.     Column Row Layer    Maximum-Head-Change  Column Row Layer    Maximum-Flux-Residual          L2-NORM 
          0                 1           2             7    3     1       0.8358639397E-02       6    4    1         0.3621182058E+00      0.1966441643E+01
          0                 2           2             7    3     1       0.3740487995E-02       7    3    1         0.9748768731E-01      0.5248984472E+00
          0                 3           2             7    3     1       0.1673849990E-02       7    3    1         0.4362576701E-01      0.2009034473E+00
          0                 4           2             7    3     1       0.7490244850E-03       7    3    1         0.1952226769E-01      0.8741258951E-01
          0                 5           2             7    3     1       0.3351700779E-03       7    3    1         0.8735907801E-02      0.3895667461E-01
          0                 6           2             7    3     1       0.1499767247E-03       7    3    1         0.3909087266E-02      0.1742758827E-01
          0                 7           1             7    3     1       0.6710764044E-04       7    3    1         0.1749170121E-02      0.7801200433E-02
          0                 8           1             7    3     1       0.3002685095E-04       7    3    1         0.7826691865E-03      0.3492568376E-02
          0                 9           1             7    3     1       0.1343499857E-04       7    3    1         0.3501984275E-03      0.1563708617E-02
          0                10           1             7    3     1       0.6011125671E-05       7    3    1         0.1566896170E-03      0.7001464184E-03

    ------------------------------------------------
       NWT REQUIRED           10 OUTER ITERATIONS 
       AND A TOTAL OF         16 INNER ITERATIONS.
    ------------------------------------------------

 NO OUTPUT CONTROL FOR STRESS PERIOD    4   TIME STEP   18
 
 SOLVING FOR HEAD 
                                                   Max.-Head-Change                         Max.-Flux-Residual
  Residual-Control   Outer-Iter.   Inner-Iter.     Column Row Layer    Maximum-Head-Change  Column Row Layer    Maximum-Flux-Residual          L2-NORM 
          0                 1           2             7    3     1       0.8323241252E-02       6    4    1         0.3620802549E+00      0.1965029644E+01
          0                 2           2             7    3     1       0.3724725074E-02       7    3    1         0.9707520841E-01      0.5243131622E+00
          0                 3           2             7    3     1       0.1666830464E-02       7    3    1         0.4344208747E-01      0.2005780638E+00
          0                 4           2             7    3     1       0.7458984486E-03       7    3    1         0.1944047119E-01      0.8726108378E-01
          0                 5           2             7    3     1       0.3337778993E-03       7    3    1         0.8699480777E-02      0.3888878064E-01
          0                 6           2             7    3     1       0.1493566971E-03       7    3    1         0.3892864396E-02      0.1739732453E-01
          0                 7           1             7    3     1       0.6683149271E-04       7    3    1         0.1741944982E-02      0.7787731398E-02
          0                 8           1             7    3     1       0.2990385647E-04       7    3    1         0.7794512399E-03      0.3486573620E-02
          0                 9           1             7    3     1       0.1338021587E-04       7    3    1         0.3487651629E-03      0.1561040779E-02
          0                10           1             7    3     1       0.5986723962E-05       7    3    1         0.1560512247E-03      0.6989583802E-03

    ------------------------------------------------
       NWT REQUIRED           10 OUTER ITERATIONS 
       AND A TOTAL OF         16 INNER ITERATIONS.
    ------------------------------------------------

 NO OUTPUT CONTROL FOR STRESS PERIOD    4   TIME STEP   19
 
 SOLVING FOR HEAD 
                                                   Max.-Head-Change                         Max.-Flux-Residual
  Residual-Control   Outer-Iter.   Inner-Iter.     Column Row Layer    Maximum-Head-Change  Column Row Layer    Maximum-Flux-Residual          L2-NORM 
          0                 1           2             7    3     1       0.8288442032E-02       6    4    1         0.3619960950E+00      0.1963834745E+01
          0                 2           2             7    3     1       0.3709227755E-02       7    3    1         0.9666970321E-01      0.5237346470E+00
          0                 3           2             7    3     1       0.1659928728E-02       7    3    1         0.4326150054E-01      0.2002559342E+00
          0                 4           2             7    3     1       0.7428246538E-03       7    3    1         0.1936004622E-01      0.8711125493E-01
          0                 5           2             7    3     1       0.3324088910E-03       7    3    1         0.8663662047E-02      0.3882159673E-01
          0                 6           2             7    3     1       0.1487469477E-03       7    3    1         0.3876911341E-02      0.1736740638E-01
          0                 7           1             7    3     1       0.6655990451E-04       7    3    1         0.1734839525E-02      0.7774411178E-02
          0                 8           1             7    3     1       0.2978288489E-04       7    3    1         0.7762863813E-03      0.3480644738E-02
          0                 9           1             7    3     1       0.1332633020E-04       7    3    1         0.3473554449E-03      0.1558400615E-02
          0                10           1             7    3     1       0.5962720555E-05       7    3    1         0.1554232784E-03      0.6977831576E-03

    ------------------------------------------------
       NWT REQUIRED           10 OUTER ITERATIONS 
       AND A TOTAL OF         16 INNER ITERATIONS.
    ------------------------------------------------

 NO OUTPUT CONTROL FOR STRESS PERIOD    4   TIME STEP   20
 
 SOLVING FOR HEAD 
                                                   Max.-Head-Change                         Max.-Flux-Residual
  Residual-Control   Outer-Iter.   Inner-Iter.     Column Row Layer    Maximum-Head-Change  Column Row Layer    Maximum-Flux-Residual          L2-NORM 
          0                 1           2             7    3     1       0.8254067061E-02       6    4    1         0.3618748945E+00      0.1962793136E+01
          0                 2           2             7    3     1       0.3693918742E-02       7    3    1         0.9626913866E-01      0.5231826694E+00
          0                 3           2             7    3     1       0.1653110575E-02       7    3    1         0.4308310654E-01      0.1999388845E+00
          0                 4           2             7    3     1       0.7397879622E-03       7    3    1         0.1928059465E-01      0.8696318008E-01
          0                 5           2             7    3     1       0.3310563540E-03       7    3    1         0.8628275420E-02      0.3875518890E-01
          0                 6           2             7    3     1       0.1481445109E-03       7    3    1         0.3861150111E-02      0.1733781192E-01
          0                 7           1             7    3     1       0.6629156287E-04       7    3    1         0.1727819235E-02      0.7761235839E-02
          0                 8           1             7    3     1       0.2966335445E-04       7    3    1         0.7731593406E-03      0.3474779257E-02
          0                 9           1             7    3     1       0.1327308506E-04       7    3    1         0.3459625312E-03      0.1555789834E-02
          0                10           1             7    3     1       0.5939001900E-05       7    3    1         0.1548027955E-03      0.6966211369E-03

    ------------------------------------------------
       NWT REQUIRED           10 OUTER ITERATIONS 
       AND A TOTAL OF         16 INNER ITERATIONS.
    ------------------------------------------------

 NO OUTPUT CONTROL FOR STRESS PERIOD    4   TIME STEP   21
 
 SOLVING FOR HEAD 
                                                   Max.-Head-Change                         Max.-Flux-Residual
  Residual-Control   Outer-Iter.   Inner-Iter.     Column Row Layer    Maximum-Head-Change  Column Row Layer    Maximum-Flux-Residual          L2-NORM 
          0                 1           2             7    3     1       0.8220105779E-02       6    4    1         0.3617197621E+00      0.1961890417E+01
          0                 2           2             7    3     1       0.3678792710E-02       7    3    1         0.9587338867E-01      0.5226346294E+00
          0                 3           2             7    3     1       0.1646373366E-02       7    3    1         0.4290684215E-01      0.1996241967E+00
          0                 4           2             7    3     1       0.7367870784E-03       7    3    1         0.1920208513E-01      0.8681630445E-01
          0                 5           2             7    3     1       0.3297196598E-03       7    3    1         0.8593305545E-02      0.3868931141E-01
          0                 6           2             7    3     1       0.1475490835E-03       7    3    1         0.3845573262E-02      0.1730845301E-01
          0                 7           1             7    3     1       0.6602632311E-04       7    3    1         0.1720880527E-02      0.7748163586E-02
          0                 8           1             7    3     1       0.2954519699E-04       7    3    1         0.7700683992E-03      0.3468959772E-02
          0                 9           1             7    3     1       0.1322044719E-04       7    3    1         0.3445855873E-03      0.1553198471E-02
          0                10           1             7    3     1       0.5915551488E-05       7    3    1         0.1541893827E-03      0.6954669751E-03

    ------------------------------------------------
       NWT REQUIRED           10 OUTER ITERATIONS 
       AND A TOTAL OF         16 INNER ITERATIONS.
    ------------------------------------------------

 NO OUTPUT CONTROL FOR STRESS PERIOD    4   TIME STEP   22
 
 SOLVING FOR HEAD 
                                                   Max.-Head-Change                         Max.-Flux-Residual
  Residual-Control   Outer-Iter.   Inner-Iter.     Column Row Layer    Maximum-Head-Change  Column Row Layer    Maximum-Flux-Residual          L2-NORM 
          0                 1           2             7    3     1       0.8186387744E-02       6    4    1         0.3615332797E+00      0.1961109571E+01
          0                 2           2             7    3     1       0.3663775124E-02       7    3    1         0.9548047377E-01      0.5220971877E+00
          0                 3           2             7    3     1       0.1639684503E-02       7    3    1         0.4273184169E-01      0.1993131736E+00
          0                 4           2             7    3     1       0.7338077497E-03       7    3    1         0.1912413910E-01      0.8667103016E-01
          0                 5           2             7    3     1       0.3283925762E-03       7    3    1         0.8558586901E-02      0.3862414251E-01
          0                 6           2             7    3     1       0.1469579417E-03       7    3    1         0.3830108425E-02      0.1727940748E-01
          0                 7           1             7    3     1       0.6576299407E-04       7    3    1         0.1713991761E-02      0.7735228453E-02
          0                 8           1             7    3     1       0.2942789116E-04       7    3    1         0.7669997242E-03      0.3463200110E-02
          0                 9           1             7    3     1       0.1316818961E-04       7    3    1         0.3432185745E-03      0.1550633942E-02
          0                10           1             7    3     1       0.5892270527E-05       7    3    1         0.1535803913E-03      0.6943250788E-03

    ------------------------------------------------
       NWT REQUIRED           10 OUTER ITERATIONS 
       AND A TOTAL OF         16 INNER ITERATIONS.
    ------------------------------------------------

 NO OUTPUT CONTROL FOR STRESS PERIOD    4   TIME STEP   23
 
 SOLVING FOR HEAD 
                                                   Max.-Head-Change                         Max.-Flux-Residual
  Residual-Control   Outer-Iter.   Inner-Iter.     Column Row Layer    Maximum-Head-Change  Column Row Layer    Maximum-Flux-Residual          L2-NORM 
          0                 1           2             7    3     1       0.8153229663E-02       6    4    1         0.3613182686E+00      0.1959401595E+01
          0                 2           2             7    3     1       0.3649005605E-02       7    3    1         0.9509407759E-01      0.5214054632E+00
          0                 3           2             7    3     1       0.1633105544E-02       7    3    1         0.4255972913E-01      0.1989913949E+00
          0                 4           2             7    3     1       0.7308771158E-03       7    3    1         0.1904747253E-01      0.8652591976E-01
          0                 5           2             7    3     1       0.3270870690E-03       7    3    1         0.8524435152E-02      0.3855936878E-01
          0                 6           2             7    3     1       0.1463763610E-03       7    3    1         0.3814894788E-02      0.1725055158E-01
          0                 7           1             7    3     1       0.6550390242E-04       7    3    1         0.1707214311E-02      0.7722380738E-02
          0                 8           1             7    3     1       0.2931246378E-04       7    3    1         0.7639803805E-03      0.3457479470E-02
          0                 9           1             7    3     1       0.1311676390E-04       7    3    1         0.3418734173E-03      0.1548086313E-02
          0                10           1             7    3     1       0.5869358855E-05       7    3    1         0.1529810935E-03      0.6931903934E-03

    ------------------------------------------------
       NWT REQUIRED           10 OUTER ITERATIONS 
       AND A TOTAL OF         16 INNER ITERATIONS.
    ------------------------------------------------

 NO OUTPUT CONTROL FOR STRESS PERIOD    4   TIME STEP   24
 
 SOLVING FOR HEAD 
                                                   Max.-Head-Change                         Max.-Flux-Residual
  Residual-Control   Outer-Iter.   Inner-Iter.     Column Row Layer    Maximum-Head-Change  Column Row Layer    Maximum-Flux-Residual          L2-NORM 
          0                 1           2             7    3     1       0.8120457239E-02       6    4    1         0.3610771450E+00      0.1958480591E+01
          0                 2           2             7    3     1       0.3634407245E-02       7    3    1         0.9471217253E-01      0.5208605675E+00
          0                 3           2             7    3     1       0.1626602551E-02       7    3    1         0.4238960979E-01      0.1986848081E+00
          0                 4           2             7    3     1       0.7279801994E-03       7    3    1         0.1897169062E-01      0.8638310727E-01
          0                 5           2             7    3     1       0.3257965285E-03       7    3    1         0.8490676073E-02      0.3849531405E-01
          0                 6           2             7    3     1       0.1458014241E-03       7    3    1         0.3799855451E-02      0.1722199759E-01
          0                 7           1             7    3     1       0.6524775995E-04       7    3    1         0.1700514238E-02      0.7709663086E-02
          0                 8           1             7    3     1       0.2919834549E-04       7    3    1         0.7609953920E-03      0.3451815378E-02
          0                 9           1             7    3     1       0.1306591996E-04       7    3    1         0.3405435224E-03      0.1545564095E-02
          0                10           1             7    3     1       0.5846705297E-05       7    3    1         0.1523885694E-03      0.6920671474E-03

    ------------------------------------------------
       NWT REQUIRED           10 OUTER ITERATIONS 
       AND A TOTAL OF         16 INNER ITERATIONS.
    ------------------------------------------------

 NO OUTPUT CONTROL FOR STRESS PERIOD    4   TIME STEP   25
 
 SOLVING FOR HEAD 
                                                   Max.-Head-Change                         Max.-Flux-Residual
  Residual-Control   Outer-Iter.   Inner-Iter.     Column Row Layer    Maximum-Head-Change  Column Row Layer    Maximum-Flux-Residual          L2-NORM 
          0                 1           2             7    3     1       0.8087900665E-02       6    4    1         0.3608119867E+00      0.1957991512E+01
          0                 2           2             7    3     1       0.3619904613E-02       7    3    1         0.9433278078E-01      0.5203483417E+00
          0                 3           2             7    3     1       0.1620142016E-02       7    3    1         0.4222060510E-01      0.1983827145E+00
          0                 4           2             7    3     1       0.7251021165E-03       7    3    1         0.1889640310E-01      0.8624168974E-01
          0                 5           2             7    3     1       0.3245143425E-03       7    3    1         0.8457136290E-02      0.3843186810E-01
          0                 6           2             7    3     1       0.1452301937E-03       7    3    1         0.3784913402E-02      0.1719371062E-01
          0                 7           1             7    3     1       0.6499326258E-04       7    3    1         0.1693857331E-02      0.7697063775E-02
          0                 8           1             7    3     1       0.2908495715E-04       7    3    1         0.7580295548E-03      0.3446204447E-02
          0                 9           1             7    3     1       0.1301539965E-04       7    3    1         0.3392221224E-03      0.1543065036E-02
          0                10           1             7    3     1       0.5824195429E-05       7    3    1         0.1517998185E-03      0.6909540347E-03

    ------------------------------------------------
       NWT REQUIRED           10 OUTER ITERATIONS 
       AND A TOTAL OF         16 INNER ITERATIONS.
    ------------------------------------------------

 NO OUTPUT CONTROL FOR STRESS PERIOD    4   TIME STEP   26
 
 SOLVING FOR HEAD 
                                                   Max.-Head-Change                         Max.-Flux-Residual
  Residual-Control   Outer-Iter.   Inner-Iter.     Column Row Layer    Maximum-Head-Change  Column Row Layer    Maximum-Flux-Residual          L2-NORM 
          0                 1           2             7    3     1       0.8055876790E-02       6    4    1         0.3605248700E+00      0.1957571449E+01
          0                 2           2             7    3     1       0.3605638197E-02       7    3    1         0.9395959153E-01      0.5198445336E+00
          0                 3           2             7    3     1       0.1613786232E-02       7    3    1         0.4205435081E-01      0.1980838064E+00
          0                 4           2             7    3     1       0.7222704902E-03       7    3    1         0.1882233530E-01      0.8610188980E-01
          0                 5           2             7    3     1       0.3232527618E-03       7    3    1         0.8424137455E-02      0.3836911078E-01
          0                 6           2             7    3     1       0.1446681032E-03       7    3    1         0.3770211278E-02      0.1716572756E-01
          0                 7           1             7    3     1       0.6474281926E-04       7    3    1         0.1687306842E-02      0.7684597957E-02
          0                 8           1             7    3     1       0.2897336748E-04       7    3    1         0.7551109221E-03      0.3440651666E-02
          0                 9           1             7    3     1       0.1296567758E-04       7    3    1         0.3379216614E-03      0.1540591416E-02
          0                10           1             7    3     1       0.5802039217E-05       7    3    1         0.1512203511E-03      0.6898521210E-03

    ------------------------------------------------
       NWT REQUIRED           10 OUTER ITERATIONS 
       AND A TOTAL OF         16 INNER ITERATIONS.
    ------------------------------------------------

 NO OUTPUT CONTROL FOR STRESS PERIOD    4   TIME STEP   27
 
 SOLVING FOR HEAD 
                                                   Max.-Head-Change                         Max.-Flux-Residual
  Residual-Control   Outer-Iter.   Inner-Iter.     Column Row Layer    Maximum-Head-Change  Column Row Layer    Maximum-Flux-Residual          L2-NORM 
          0                 1           2             7    3     1       0.8024211624E-02       6    4    1         0.3602119791E+00      0.1957211503E+01
          0                 2           2             7    3     1       0.3591530604E-02       7    3    1         0.9359057776E-01      0.5193486632E+00
          0                 3           2             7    3     1       0.1607500774E-02       7    3    1         0.4188994529E-01      0.1977883561E+00
          0                 4           2             7    3     1       0.7194700047E-03       7    3    1         0.1874908610E-01      0.8596356323E-01
          0                 5           2             7    3     1       0.3220049714E-03       7    3    1         0.8391501108E-02      0.3830701375E-01
          0                 6           2             7    3     1       0.1441121198E-03       7    3    1         0.3755669680E-02      0.1713803731E-01
          0                 7           1             7    3     1       0.6449508065E-04       7    3    1         0.1680827450E-02      0.7672261919E-02
          0                 8           1             7    3     1       0.2886297597E-04       7    3    1         0.7522237858E-03      0.3435156177E-02
          0                 9           1             7    3     1       0.1291648599E-04       7    3    1         0.3366351559E-03      0.1538143730E-02
          0                10           1             7    3     1       0.5780118610E-05       7    3    1         0.1506470724E-03      0.6887617555E-03

    ------------------------------------------------
       NWT REQUIRED           10 OUTER ITERATIONS 
       AND A TOTAL OF         16 INNER ITERATIONS.
    ------------------------------------------------

 NO OUTPUT CONTROL FOR STRESS PERIOD    4   TIME STEP   28
 
 SOLVING FOR HEAD 
                                                   Max.-Head-Change                         Max.-Flux-Residual
  Residual-Control   Outer-Iter.   Inner-Iter.     Column Row Layer    Maximum-Head-Change  Column Row Layer    Maximum-Flux-Residual          L2-NORM 
          0                 1           2             7    3     1       0.7992897439E-02       6    4    1         0.3598867646E+00      0.1956633535E+01
          0                 2           2             7    3     1       0.3577579281E-02       7    3    1         0.9322565371E-01      0.5188356654E+00
          0                 3           2             7    3     1       0.1601284896E-02       7    3    1         0.4172736068E-01      0.1974939118E+00
          0                 4           2             7    3     1       0.7167005024E-03       7    3    1         0.1867664769E-01      0.8582617246E-01
          0                 5           2             7    3     1       0.3207709778E-03       7    3    1         0.8359225794E-02      0.3824536063E-01
          0                 6           2             7    3     1       0.1435622807E-03       7    3    1         0.3741288854E-02      0.1711054201E-01
          0                 7           1             7    3     1       0.6425007850E-04       7    3    1         0.1674419653E-02      0.7660011766E-02
          0                 8           1             7    3     1       0.2875380275E-04       7    3    1         0.7493685300E-03      0.3429699085E-02
          0                 9           1             7    3     1       0.1286783739E-04       7    3    1         0.3353628500E-03      0.1535712328E-02
          0                10           1             7    3     1       0.5758439860E-05       7    3    1         0.1500801158E-03      0.6876787777E-03

    ------------------------------------------------
       NWT REQUIRED           10 OUTER ITERATIONS 
       AND A TOTAL OF         16 INNER ITERATIONS.
    ------------------------------------------------

 NO OUTPUT CONTROL FOR STRESS PERIOD    4   TIME STEP   29
 
 SOLVING FOR HEAD 
                                                   Max.-Head-Change                         Max.-Flux-Residual
  Residual-Control   Outer-Iter.   Inner-Iter.     Column Row Layer    Maximum-Head-Change  Column Row Layer    Maximum-Flux-Residual          L2-NORM 
          0                 1           2             7    3     1       0.7961926039E-02       6    4    1         0.3595391747E+00      0.1948335731E+01
          0                 2           2             7    3     1       0.3563779303E-02       7    3    1         0.9286471825E-01      0.5173496646E+00
          0                 3           2             7    3     1       0.1595135797E-02       7    3    1         0.4156653682E-01      0.1971008978E+00
          0                 4           2             7    3     1       0.7139604533E-03       7    3    1         0.1860498609E-01      0.8567478385E-01
          0                 5           2             7    3     1       0.3195499717E-03       7    3    1         0.8327293078E-02      0.3817967368E-01
          0                 6           2             7    3     1       0.1430181681E-03       7    3    1         0.3727059101E-02      0.1708140908E-01
          0                 7           1             7    3     1       0.6400760147E-04       7    3    1         0.1668078466E-02      0.7647045407E-02
          0                 8           1             7    3     1       0.2864574278E-04       7    3    1         0.7465426371E-03      0.3423924421E-02
          0                 9           1             7    3     1       0.1281967938E-04       7    3    1         0.3341034856E-03      0.1533140167E-02
          0                10           1             7    3     1       0.5736976831E-05       7    3    1         0.1495188628E-03      0.6865327923E-03

    ------------------------------------------------
       NWT REQUIRED           10 OUTER ITERATIONS 
       AND A TOTAL OF         16 INNER ITERATIONS.
    ------------------------------------------------

 NO OUTPUT CONTROL FOR STRESS PERIOD    4   TIME STEP   30



 STREAM LISTING     PERIOD      4   STEP       30

 LAYER ROW COL. STREAM  RCH.  FLOW INTO     FLOW TO   FLOW OUT OF   OVRLND.     DIRECT     STREAM       STREAM     STREAM     STREAM   STREAMBED  STREAMBED
                SEG.NO.  NO.  STRM. RCH.    AQUIFER    STRM. RCH.    RUNOFF     PRECIP       ET          HEAD       DEPTH      WIDTH   CONDCTNC.   GRADIENT

   1    1    1     1     1    7.0288E+01  4.0691E-08   7.0288E+01  0.000E+00  0.000E+00  0.000E+00  1.09469E+03  1.646E+00  1.946E+01  8.759E-09  1.549E+00
   1    2    2     1     2    7.0288E+01  6.3238E-09   7.0288E+01  0.000E+00  0.000E+00  0.000E+00  1.08970E+03  1.644E+00  1.945E+01  1.362E-09  1.548E+00
   1    3    3     1     3    7.0288E+01  5.4224E-09   7.0288E+01  0.000E+00  0.000E+00  0.000E+00  1.08406E+03  1.645E+00  1.946E+01  1.167E-09  1.548E+00
   1    3    4     1     4    7.0288E+01  5.0166E-09   7.0288E+01  0.000E+00  0.000E+00  0.000E+00  1.07905E+03  1.645E+00  1.946E+01  1.080E-09  1.548E+00
   1    4    5     2     1    6.8288E+01  4.0582E-01   6.7882E+01  0.000E+00  0.000E+00  0.000E+00  1.07414E+03  2.203E+00  1.200E+01  7.800E-02  1.734E+00
   1    5    6     2     2    6.7882E+01  3.1175E-01   6.7570E+01  0.000E+00  0.000E+00  0.000E+00  1.06871E+03  2.196E+00  1.200E+01  6.000E-02  1.732E+00
   1    6    6     2     3    6.7570E+01  3.1139E-01   6.7259E+01  0.000E+00  0.000E+00  0.000E+00  1.06398E+03  2.190E+00  1.200E+01  6.000E-02  1.730E+00
   1    7    6     2     4    6.7259E+01  3.1102E-01   6.6948E+01  0.000E+00  0.000E+00  0.000E+00  1.05926E+03  2.184E+00  1.200E+01  6.000E-02  1.728E+00
   1    8    6     2     5    6.6948E+01  3.1066E-01   6.6637E+01  0.000E+00  0.000E+00  0.000E+00  1.05454E+03  2.178E+00  1.200E+01  6.000E-02  1.726E+00
   1    3    5     3     1    2.0000E+00  2.8252E-01   1.7175E+00  0.000E+00  0.000E+00  0.000E+00  1.07555E+03  1.909E+00  9.636E+00  7.227E-02  1.955E+00
   1    3    6     3     2    1.7175E+00  2.4905E-01   1.4684E+00  0.000E+00  0.000E+00  0.000E+00  1.07264E+03  1.727E+00  8.909E+00  6.682E-02  1.864E+00
   1    3    7     3     3    1.4684E+00  1.9718E-01   1.2712E+00  0.000E+00  0.000E+00  0.000E+00  1.06987E+03  1.555E+00  8.218E+00  5.547E-02  1.777E+00
   1    4    8     3     4    1.2712E+00  2.2567E-01   1.0456E+00  0.000E+00  0.000E+00  0.000E+00  1.06682E+03  1.364E+00  7.455E+00  6.709E-02  1.682E+00
   1    5    8     3     5    1.0456E+00  1.5790E-01   8.8768E-01  0.000E+00  0.000E+00  0.000E+00  1.06362E+03  1.164E+00  6.655E+00  4.991E-02  1.582E+00
   1    6    8     3     6    8.8768E-01  5.5980E-02   8.3170E-01  0.000E+00  0.000E+00  0.000E+00  1.06158E+03  1.036E+00  6.145E+00  1.844E-02  1.518E+00
   1    5   10     4     1    1.0000E+01  9.0919E-02   9.9091E+00  0.000E+00  0.000E+00  0.000E+00  1.07836E+03  6.368E-01  1.000E+01  2.500E-02  1.212E+00
   1    5    9     4     2    9.9091E+00  1.8158E-01   9.7275E+00  0.000E+00  0.000E+00  0.000E+00  1.07154E+03  6.315E-01  1.000E+01  5.000E-02  1.211E+00
   1    6    8     4     3    9.7275E+00  1.2689E-01   9.6006E+00  0.000E+00  0.000E+00  0.000E+00  1.06381E+03  6.256E-01  1.000E+01  3.500E-02  1.209E+00
   1    6    8     5     1    1.0432E+01  2.2686E-09   1.0432E+01  0.000E+00  0.000E+00  0.000E+00  1.05868E+03  6.790E-01  1.542E+01  6.166E-10  1.226E+00
   1    7    7     5     2    1.0432E+01  2.8306E-09   1.0432E+01  0.000E+00  0.000E+00  0.000E+00  1.05418E+03  6.784E-01  1.539E+01  7.695E-10  1.226E+00
   1    8    7     5     3    1.0432E+01  1.9868E-09   1.0432E+01  0.000E+00  0.000E+00  0.000E+00  1.04993E+03  6.794E-01  1.543E+01  5.400E-10  1.226E+00
   1    8    6     5     4    1.0432E+01  1.4217E-09   1.0432E+01  0.000E+00  0.000E+00  0.000E+00  1.04693E+03  6.800E-01  1.545E+01  3.863E-10  1.227E+00
   1    9    6     6     1    7.7069E+01  3.2378E-01   7.6746E+01  0.000E+00  0.000E+00  0.000E+00  1.04512E+03  2.396E+00  1.200E+01  6.000E-02  1.799E+00
   1   10    7     6     2    7.6746E+01  3.2342E-01   7.6422E+01  0.000E+00  0.000E+00  0.000E+00  1.04057E+03  2.390E+00  1.200E+01  6.000E-02  1.797E+00
   1   11    7     6     3    7.6422E+01  3.2305E-01   7.6099E+01  0.000E+00  0.000E+00  0.000E+00  1.03602E+03  2.384E+00  1.200E+01  6.000E-02  1.795E+00
   1   12    7     6     4    7.6099E+01  3.2269E-01   7.5776E+01  0.000E+00  0.000E+00  0.000E+00  1.03147E+03  2.378E+00  1.200E+01  6.000E-02  1.793E+00
   1   13    7     6     5    7.5776E+01  1.2897E-01   7.5647E+01  0.000E+00  0.000E+00  0.000E+00  1.02828E+03  2.374E+00  1.200E+01  2.400E-02  1.791E+00
   1   14    9     7     1    1.5000E+02  2.9539E-08   1.5000E+02  0.000E+00  0.000E+00  0.000E+00  1.03986E+03  2.283E+00  5.528E+01  5.591E-09  1.761E+00
   1   13    8     7     2    1.5000E+02  3.2486E-14   1.5000E+02  0.000E+00  0.000E+00  0.000E+00  1.03478E+03  2.283E+00  5.527E+01  6.150E-15  1.761E+00
   1   13    7     7     3    1.5000E+02  2.9539E-08   1.5000E+02  0.000E+00  0.000E+00  0.000E+00  1.02970E+03  2.283E+00  5.528E+01  5.591E-09  1.761E+00
   1   13    6     8     1    2.2565E+02  3.0361E-15   2.2565E+02  0.000E+00  0.000E+00  0.000E+00  1.02515E+03  3.275E+00  4.748E+01  4.839E-16  2.092E+00
   1   13    5     8     2    2.2565E+02  3.0361E-15   2.2565E+02  0.000E+00  0.000E+00  0.000E+00  1.01890E+03  3.275E+00  4.748E+01  4.839E-16  2.092E+00
   1   13    4     8     3    2.2565E+02  2.6693E-16   2.2565E+02  0.000E+00  0.000E+00  0.000E+00  1.01265E+03  3.276E+00  4.750E+01  4.840E-17  1.838E+00
   1   13    3     8     4    2.2565E+02  7.5269E-08   2.2565E+02  0.000E+00  0.000E+00  0.000E+00  1.00641E+03  3.281E+00  4.757E+01  4.848E-08  5.175E-01
   1   13    2     8     5    2.2565E+02 -1.2396E+00   2.2689E+02  0.000E+00  0.000E+00  0.000E+00  1.00016E+03  3.286E+00  4.765E+01  4.856E+00 -8.509E-02
   1   13    1     8     6    2.2689E+02 -1.7836E+00   2.2867E+02  0.000E+00  0.000E+00  0.000E+00  9.95170E+02  3.295E+00  4.777E+01  2.921E+00 -2.035E-01
   1    6    8     9     1    0.0000E+00  0.0000E+00   0.0000E+00  0.000E+00  0.000E+00  0.000E+00  1.07850E+03  0.000E+00  4.000E+00  0.000E+00  1.000E+00





UNSATURATED ZONE PACKAGE VOLUMETRIC BUDGET FOR  TIME STEP    30 STRESS PERIOD    4
  ------------------------------------------------------------------------------



     CUMULATIVE VOLUMES      L**3       RATES FOR THIS TIME STEP      L**3/T
     ------------------                 ------------------------

           IN:                                      IN:
           ---                                      ---
        INFILTRATION =     8908920.0000          INFILTRATION =           0.8475

          OUT:                                     OUT:
          ----                                     ----
              UZF ET =     2255063.1231                UZF ET =           0.2857
        UZF RECHARGE =   230292888.7054          UZF RECHARGE =          28.1533

            IN - OUT =  -223639031.8285              IN - OUT =         -27.5916

          STORAGE:                                 STORAGE:
          --------                                 --------
      STORAGE CHANGE =  -223638345.3892        STORAGE CHANGE =         -27.5916

 PERCENT DISCREPANCY IS DIFFERENCE BETWEEN IN-OUT MINUS CHANGE IN STORAGE
 DIVIDED BY THE AVERAGE OF IN AND OUT TIMES 100

 PERCENT DISCREPANCY =          -0.00     PERCENT DISCREPANCY =          -0.00






1
  VOLUMETRIC BUDGET FOR ENTIRE MODEL AT END OF TIME STEP   30, STRESS PERIOD   4
  ------------------------------------------------------------------------------

     CUMULATIVE VOLUMES      L**3       RATES FOR THIS TIME STEP      L**3/T
     ------------------                 ------------------------

           IN:                                      IN:
           ---                                      ---
             STORAGE =       11937.6348               STORAGE =           0.1363
       CONSTANT HEAD =           0.0000         CONSTANT HEAD =           0.0000
               WELLS =           0.0000                 WELLS =           0.0000
     HEAD DEP BOUNDS =    11193625.0000       HEAD DEP BOUNDS =           1.0567
      STREAM LEAKAGE =    37755256.0000        STREAM LEAKAGE =           4.6402
        UZF RECHARGE =   230292880.0000          UZF RECHARGE =          28.1533
               GW ET =           0.0000                 GW ET =           0.0000
     SURFACE LEAKAGE =           0.0000       SURFACE LEAKAGE =           0.0000

            TOTAL IN =   279253696.0000              TOTAL IN =          33.9866

          OUT:                                     OUT:
          ----                                     ----
             STORAGE =   248368656.0000               STORAGE =          30.6612
       CONSTANT HEAD =           0.0000         CONSTANT HEAD =           0.0000
               WELLS =           0.0000                 WELLS =           0.0000
     HEAD DEP BOUNDS =     3012462.2500       HEAD DEP BOUNDS =           0.2956
      STREAM LEAKAGE =    25850242.0000        STREAM LEAKAGE =           3.0231
        UZF RECHARGE =           0.0000          UZF RECHARGE =           0.0000
               GW ET =     2002296.7500                 GW ET =       4.2729E-03
     SURFACE LEAKAGE =           0.0000       SURFACE LEAKAGE =           0.0000

           TOTAL OUT =   279233664.0000             TOTAL OUT =          33.9842

            IN - OUT =       20032.0000              IN - OUT =       2.3117E-03

 PERCENT DISCREPANCY =           0.01     PERCENT DISCREPANCY =           0.01






         TIME SUMMARY AT END OF TIME STEP   30 IN STRESS PERIOD    4
                    SECONDS     MINUTES      HOURS       DAYS        YEARS
                    -----------------------------------------------------------
   TIME STEP LENGTH  87600.      1460.0      24.333      1.0139     2.77588E-03
 STRESS PERIOD TIME 2.62800E+06  43800.      730.00      30.417     8.32763E-02
         TOTAL TIME 1.05120E+07 1.75200E+05  2920.0      121.67     0.33311    
1
1
                            STRESS PERIOD NO.    5, LENGTH =   2628000.    
                            -----------------------------------------------

                              NUMBER OF TIME STEPS =    30

                               MULTIPLIER FOR DELT =     1.000

                            INITIAL TIME STEP SIZE =   87600.00    

 WELL NO.  LAYER   ROW   COL   STRESS RATE         
 --------------------------------------------------
      1      1      6      4       0.000    
      2      1      6      7       0.000    
      3      1      7      4       0.000    
      4      1      7      5       0.000    
      5      1      8      4       0.000    
      6      1      8      5       0.000    
      7      1      9      4       0.000    
      8      1      9      5       0.000    
      9      1     10      4       0.000    
     10      1     10      5       0.000    

     10 WELLS

 REUSING NON-PARAMETER GHB CELLS FROM LAST STRESS PERIOD

      2 GHB CELLS

 REUSING STREAM SEGMENT DATA FROM LAST STRESS PERIOD



            AREAL INFILTRATION RATE
 READING ON UNIT   19 WITH FORMAT: (10F4.0)            

            1           2           3           4           5           6           7           8           9          10
 ........................................................................................................................
   1   1.0000E-10  2.0000E-10   0.000       0.000       0.000       0.000       0.000       0.000       0.000       0.000    
   2   2.0000E-10  1.0000E-10  2.0000E-10   0.000       0.000      8.0000E-10  8.0000E-10  5.0000E-10   0.000       0.000    
   3    0.000      5.0000E-10  1.0000E-10  1.0000E-10  8.0000E-10  8.0000E-10  5.0000E-10  5.0000E-10   0.000       0.000    
   4   8.0000E-10  5.0000E-10  1.0000E-10  1.0000E-10  1.0000E-10  1.0000E-10  1.0000E-10  1.0000E-10  2.0000E-10   0.000    
   5   8.0000E-10  5.0000E-10  1.0000E-10  1.0000E-10  1.0000E-10  1.0000E-10  1.0000E-10  1.0000E-10  1.0000E-10  1.0000E-10
   6   8.0000E-10  5.0000E-10  5.0000E-10  2.0000E-10  2.0000E-10  1.0000E-10  1.0000E-10  1.0000E-10  1.0000E-10  5.0000E-10
   7   8.0000E-10  5.0000E-10  5.0000E-10  2.0000E-10  2.0000E-10  1.0000E-10  1.0000E-10  2.0000E-10  2.0000E-10   0.000    
   8    0.000      5.0000E-10  5.0000E-10  2.0000E-10  2.0000E-10  1.0000E-10  1.0000E-10  2.0000E-10  5.0000E-10   0.000    
   9    0.000      5.0000E-10  5.0000E-10  2.0000E-10  2.0000E-10  1.0000E-10  1.0000E-10  2.0000E-10  5.0000E-10   0.000    
  10    0.000      5.0000E-10  5.0000E-10  2.0000E-10  2.0000E-10  1.0000E-10  1.0000E-10  2.0000E-10  5.0000E-10  8.0000E-10
  11    0.000      1.0000E-10  1.0000E-10  1.0000E-10  1.0000E-10  1.0000E-10  1.0000E-10  2.0000E-10  5.0000E-10   0.000    
  12   1.0000E-10  1.0000E-10  1.0000E-10  1.0000E-10  1.0000E-10  1.0000E-10  1.0000E-10  1.0000E-10  2.0000E-10   0.000    
  13   1.0000E-10  1.0000E-10  2.0000E-10  2.0000E-10  2.0000E-10  2.0000E-10  2.0000E-10  1.0000E-10  1.0000E-10   0.000    
  14    0.000      2.0000E-10  5.0000E-10  5.0000E-10  5.0000E-10  5.0000E-10  5.0000E-10  2.0000E-10  1.0000E-10   0.000    
  15    0.000       0.000      8.0000E-10  8.0000E-10  8.0000E-10  8.0000E-10   0.000       0.000       0.000       0.000    

                  ET RATE =  5.000000E-09

 USING ET EXTINCTION DEPTH FROM PREVIOUS STRESS PERIOD. CURRENT PERIOD IS:       5

 USING EXTINCTION WATER CONTENT FROM PREVIOUS STRESS PERIOD. CURRENT PERIOD IS:       5
 
 SOLVING FOR HEAD 
                                                   Max.-Head-Change                         Max.-Flux-Residual
  Residual-Control   Outer-Iter.   Inner-Iter.     Column Row Layer    Maximum-Head-Change  Column Row Layer    Maximum-Flux-Residual          L2-NORM 
          0                 1           2             2   13     1      -0.2002569074E-01       2   13    1        -0.1138940813E+01      0.2276944794E+01
          0                 2           2             7    3     1       0.3550124537E-02       7    3    1         0.9250763852E-01      0.5123011678E+00
          0                 3           2             7    3     1       0.1589049958E-02       7    3    1         0.4140739946E-01      0.1961604694E+00
          0                 4           2             7    3     1       0.7112478644E-03       7    3    1         0.1853405854E-01      0.8544372404E-01
          0                 5           2             7    3     1       0.3183408567E-03       7    3    1         0.8295678812E-02      0.3809162795E-01
          0                 6           2             7    3     1       0.1424791942E-03       7    3    1         0.3712967176E-02      0.1704326280E-01
          0                 7           1             7    3     1       0.6376734143E-04       7    3    1         0.1661796827E-02      0.7630144725E-02
          0                 8           1             7    3     1       0.2853863785E-04       7    3    1         0.7437424296E-03      0.3416409363E-02
          0                 9           1             7    3     1       0.1277193181E-04       7    3    1         0.3328551830E-03      0.1529796483E-02
          0                10           1             7    3     1       0.5715690630E-05       7    3    1         0.1489623689E-03      0.6850447952E-03

    ------------------------------------------------
       NWT REQUIRED           10 OUTER ITERATIONS 
       AND A TOTAL OF         16 INNER ITERATIONS.
    ------------------------------------------------

 NO OUTPUT CONTROL FOR STRESS PERIOD    5   TIME STEP    1
 
 SOLVING FOR HEAD 
                                                   Max.-Head-Change                         Max.-Flux-Residual
  Residual-Control   Outer-Iter.   Inner-Iter.     Column Row Layer    Maximum-Head-Change  Column Row Layer    Maximum-Flux-Residual          L2-NORM 
          0                 1           2             2   13     1      -0.1945719099E-01       2   13    1        -0.1106514785E+01      0.2257033258E+01
          0                 2           2             7    3     1       0.3531448123E-02       2   13    1         0.1096276445E+00      0.5229863195E+00
          0                 3           2             7    3     1       0.1579444623E-02       7    3    1         0.4118348036E-01      0.1960137310E+00
          0                 4           2             7    3     1       0.7064087567E-03       7    3    1         0.1841938797E-01      0.8526814092E-01
          0                 5           2             7    3     1       0.3159411651E-03       7    3    1         0.8238094660E-02      0.3801130137E-01
          0                 6           2             7    3     1       0.1413039712E-03       7    3    1         0.3684483407E-02      0.1700731163E-01
          0                 7           1             7    3     1       0.6319759022E-04       7    3    1         0.1647875464E-02      0.7614079351E-02
          0                 8           1             7    3     1       0.2826472811E-04       7    3    1         0.7370045570E-03      0.3409232644E-02
          0                 9           1             7    3     1       0.1264117601E-04       7    3    1         0.3296204447E-03      0.1526591282E-02
          0                10           1             7    3     1       0.5653647209E-05       7    3    1         0.1474200319E-03      0.6836136311E-03

    ------------------------------------------------
       NWT REQUIRED           10 OUTER ITERATIONS 
       AND A TOTAL OF         16 INNER ITERATIONS.
    ------------------------------------------------

 NO OUTPUT CONTROL FOR STRESS PERIOD    5   TIME STEP    2
 
 SOLVING FOR HEAD 
                                                   Max.-Head-Change                         Max.-Flux-Residual
  Residual-Control   Outer-Iter.   Inner-Iter.     Column Row Layer    Maximum-Head-Change  Column Row Layer    Maximum-Flux-Residual          L2-NORM 
          0                 1           2             2   13     1      -0.1777228463E-01       2   13    1        -0.1010576557E+01      0.2204095718E+01
          0                 2           2             7    3     1       0.3514753009E-02       2   13    1         0.1001168975E+00      0.5201173784E+00
          0                 3           2             7    3     1       0.1572043026E-02       7    3    1         0.4098909886E-01      0.1955880640E+00
          0                 4           2             7    3     1       0.7031270989E-03       7    3    1         0.1833320975E-01      0.8509272908E-01
          0                 5           2             7    3     1       0.3144860713E-03       7    3    1         0.8199885182E-02      0.3793310250E-01
          0                 6           2             7    3     1       0.1406587371E-03       7    3    1         0.3667541042E-02      0.1697248817E-01
          0                 7           1             7    3     1       0.6291145356E-04       7    3    1         0.1640362590E-02      0.7598579663E-02
          0                 8           1             7    3     1       0.2813782990E-04       7    3    1         0.7336728565E-03      0.3402334615E-02
          0                 9           1             7    3     1       0.1258489414E-04       7    3    1         0.3281428540E-03      0.1523520820E-02
          0                10           1             7    3     1       0.5628684001E-05       7    3    1         0.1467646881E-03      0.6822468108E-03

    ------------------------------------------------
       NWT REQUIRED           10 OUTER ITERATIONS 
       AND A TOTAL OF         16 INNER ITERATIONS.
    ------------------------------------------------

 NO OUTPUT CONTROL FOR STRESS PERIOD    5   TIME STEP    3
 
 SOLVING FOR HEAD 
                                                   Max.-Head-Change                         Max.-Flux-Residual
  Residual-Control   Outer-Iter.   Inner-Iter.     Column Row Layer    Maximum-Head-Change  Column Row Layer    Maximum-Flux-Residual          L2-NORM 
          0                 1           2             2   13     1      -0.1623430308E-01       2   13    1        -0.9230176708E+00      0.2158281004E+01
          0                 2           2             7    3     1       0.3497200866E-02       2   13    1         0.9143736912E-01      0.5175966747E+00
          0                 3           2             7    3     1       0.1564264413E-02       7    3    1         0.4078475305E-01      0.1951791406E+00
          0                 4           2             7    3     1       0.6996795938E-03       7    3    1         0.1824264816E-01      0.8492168544E-01
          0                 5           2             7    3     1       0.3129580248E-03       7    3    1         0.8159747493E-02      0.3785679084E-01
          0                 6           2             7    3     1       0.1399814125E-03       7    3    1         0.3649750489E-02      0.1693850053E-01
          0                 7           1             7    3     1       0.6261120313E-04       7    3    1         0.1632476637E-02      0.7583450953E-02
          0                 8           1             7    3     1       0.2800472330E-04       7    3    1         0.7301770488E-03      0.3395600116E-02
          0                 9           1             7    3     1       0.1252588194E-04       7    3    1         0.3265930802E-03      0.1520523111E-02
          0                10           1             7    3     1       0.5602519260E-05       7    3    1         0.1460775919E-03      0.6809124979E-03

    ------------------------------------------------
       NWT REQUIRED           10 OUTER ITERATIONS 
       AND A TOTAL OF         16 INNER ITERATIONS.
    ------------------------------------------------

 NO OUTPUT CONTROL FOR STRESS PERIOD    5   TIME STEP    4
 
 SOLVING FOR HEAD 
                                                   Max.-Head-Change                         Max.-Flux-Residual
  Residual-Control   Outer-Iter.   Inner-Iter.     Column Row Layer    Maximum-Head-Change  Column Row Layer    Maximum-Flux-Residual          L2-NORM 
          0                 1           2             2   13     1      -0.1483032228E-01       2   13    1        -0.8431002639E+00      0.2118679841E+01
          0                 2           2             7    3     1       0.3480006134E-02       7    3    1         0.9073052685E-01      0.5153725280E+00
          0                 3           2             7    3     1       0.1556643054E-02       7    3    1         0.4058456274E-01      0.1947851627E+00
          0                 4           2             7    3     1       0.6963012844E-03       7    3    1         0.1815391496E-01      0.8475471070E-01
          0                 5           2             7    3     1       0.3114604282E-03       7    3    1         0.8120414350E-02      0.3778224862E-01
          0                 6           2             7    3     1       0.1393174895E-03       7    3    1         0.3632313990E-02      0.1690529456E-01
          0                 7           1             7    3     1       0.6231684982E-04       7    3    1         0.1624746489E-02      0.7568666936E-02
          0                 8           1             7    3     1       0.2787421261E-04       7    3    1         0.7267498201E-03      0.3389018645E-02
          0                 9           1             7    3     1       0.1246801225E-04       7    3    1         0.3250734910E-03      0.1517593316E-02
          0                10           1             7    3     1       0.5576857617E-05       7    3    1         0.1454037838E-03      0.6796086252E-03

    ------------------------------------------------
       NWT REQUIRED           10 OUTER ITERATIONS 
       AND A TOTAL OF         16 INNER ITERATIONS.
    ------------------------------------------------

 OUTPUT CONTROL FOR STRESS PERIOD    5   TIME STEP    5
    PRINT BUDGET
    SAVE BUDGET
 UBUDSV SAVING "         STORAGE" ON UNIT102 AT TIME STEP     5, STRESS PERIOD    5
 UBUDSV SAVING "   CONSTANT HEAD" ON UNIT102 AT TIME STEP     5, STRESS PERIOD    5
 UBUDSV SAVING "FLOW RIGHT FACE " ON UNIT102 AT TIME STEP     5, STRESS PERIOD    5
 UBUDSV SAVING "FLOW FRONT FACE " ON UNIT102 AT TIME STEP     5, STRESS PERIOD    5

  HEAD DEP BOUNDS   PERIOD    5   STEP     5
 BOUNDARY      1   LAYER   1   ROW    13   COL     1   RATE   -0.293820    
 BOUNDARY      2   LAYER   1   ROW    14   COL     9   RATE     1.05594    



 STREAM LISTING     PERIOD      5   STEP        5

 LAYER ROW COL. STREAM  RCH.  FLOW INTO     FLOW TO   FLOW OUT OF   OVRLND.     DIRECT     STREAM       STREAM     STREAM     STREAM   STREAMBED  STREAMBED
                SEG.NO.  NO.  STRM. RCH.    AQUIFER    STRM. RCH.    RUNOFF     PRECIP       ET          HEAD       DEPTH      WIDTH   CONDCTNC.   GRADIENT

   1    1    1     1     1    2.8000E+01  2.5860E-10   2.8000E+01  0.000E+00  0.000E+00  0.000E+00  1.09427E+03  1.221E+00  1.361E+01  6.126E-11  1.407E+00
   1    2    2     1     2    2.8000E+01  4.0178E-10   2.8000E+01  0.000E+00  0.000E+00  0.000E+00  1.08928E+03  1.220E+00  1.360E+01  9.520E-11  1.407E+00
   1    3    3     1     3    2.8000E+01  3.4455E-10   2.8000E+01  0.000E+00  0.000E+00  0.000E+00  1.08364E+03  1.221E+00  1.361E+01  8.163E-11  1.407E+00
   1    3    4     1     4    2.8000E+01  3.1878E-10   2.8000E+01  0.000E+00  0.000E+00  0.000E+00  1.07863E+03  1.221E+00  1.361E+01  7.552E-11  1.407E+00
   1    4    5     2     1    2.6000E+01  3.3006E-01   2.5670E+01  0.000E+00  0.000E+00  0.000E+00  1.07317E+03  1.232E+00  1.200E+01  7.800E-02  1.411E+00
   1    5    6     2     2    2.5670E+01  2.5339E-01   2.5417E+01  0.000E+00  0.000E+00  0.000E+00  1.06773E+03  1.223E+00  1.200E+01  6.000E-02  1.408E+00
   1    6    6     2     3    2.5417E+01  2.5296E-01   2.5164E+01  0.000E+00  0.000E+00  0.000E+00  1.06301E+03  1.216E+00  1.200E+01  6.000E-02  1.405E+00
   1    7    6     2     4    2.5164E+01  2.5252E-01   2.4911E+01  0.000E+00  0.000E+00  0.000E+00  1.05828E+03  1.209E+00  1.200E+01  6.000E-02  1.403E+00
   1    8    6     2     5    2.4911E+01  2.5208E-01   2.4659E+01  0.000E+00  0.000E+00  0.000E+00  1.05356E+03  1.201E+00  1.200E+01  6.000E-02  1.400E+00
   1    3    5     3     1    2.0000E+00  2.8252E-01   1.7175E+00  0.000E+00  0.000E+00  0.000E+00  1.07555E+03  1.909E+00  9.636E+00  7.227E-02  1.955E+00
   1    3    6     3     2    1.7175E+00  2.4905E-01   1.4684E+00  0.000E+00  0.000E+00  0.000E+00  1.07264E+03  1.727E+00  8.909E+00  6.682E-02  1.864E+00
   1    3    7     3     3    1.4684E+00  1.9718E-01   1.2712E+00  0.000E+00  0.000E+00  0.000E+00  1.06987E+03  1.555E+00  8.218E+00  5.547E-02  1.777E+00
   1    4    8     3     4    1.2712E+00  2.2567E-01   1.0456E+00  0.000E+00  0.000E+00  0.000E+00  1.06682E+03  1.364E+00  7.455E+00  6.709E-02  1.682E+00
   1    5    8     3     5    1.0456E+00  1.5790E-01   8.8768E-01  0.000E+00  0.000E+00  0.000E+00  1.06362E+03  1.164E+00  6.655E+00  4.991E-02  1.582E+00
   1    6    8     3     6    8.8768E-01  5.5980E-02   8.3170E-01  0.000E+00  0.000E+00  0.000E+00  1.06158E+03  1.036E+00  6.145E+00  1.844E-02  1.518E+00
   1    5   10     4     1    1.0000E+01  9.0919E-02   9.9091E+00  0.000E+00  0.000E+00  0.000E+00  1.07836E+03  6.368E-01  1.000E+01  2.500E-02  1.212E+00
   1    5    9     4     2    9.9091E+00  1.8158E-01   9.7275E+00  0.000E+00  0.000E+00  0.000E+00  1.07154E+03  6.315E-01  1.000E+01  5.000E-02  1.211E+00
   1    6    8     4     3    9.7275E+00  1.2689E-01   9.6006E+00  0.000E+00  0.000E+00  0.000E+00  1.06381E+03  6.256E-01  1.000E+01  3.500E-02  1.209E+00
   1    6    8     5     1    1.0432E+01  2.2686E-09   1.0432E+01  0.000E+00  0.000E+00  0.000E+00  1.05868E+03  6.790E-01  1.542E+01  6.166E-10  1.226E+00
   1    7    7     5     2    1.0432E+01  2.8306E-09   1.0432E+01  0.000E+00  0.000E+00  0.000E+00  1.05418E+03  6.784E-01  1.539E+01  7.695E-10  1.226E+00
   1    8    7     5     3    1.0432E+01  1.9868E-09   1.0432E+01  0.000E+00  0.000E+00  0.000E+00  1.04993E+03  6.794E-01  1.543E+01  5.400E-10  1.226E+00
   1    8    6     5     4    1.0432E+01  1.4217E-09   1.0432E+01  0.000E+00  0.000E+00  0.000E+00  1.04693E+03  6.800E-01  1.545E+01  3.863E-10  1.227E+00
   1    9    6     6     1    3.5091E+01  2.6959E-01   3.4822E+01  0.000E+00  0.000E+00  0.000E+00  1.04422E+03  1.493E+00  1.200E+01  6.000E-02  1.498E+00
   1   10    7     6     2    3.4822E+01  2.6917E-01   3.4553E+01  0.000E+00  0.000E+00  0.000E+00  1.03967E+03  1.486E+00  1.200E+01  6.000E-02  1.495E+00
   1   11    7     6     3    3.4553E+01  2.6876E-01   3.4284E+01  0.000E+00  0.000E+00  0.000E+00  1.03512E+03  1.479E+00  1.200E+01  6.000E-02  1.493E+00
   1   12    7     6     4    3.4284E+01  2.6834E-01   3.4015E+01  0.000E+00  0.000E+00  0.000E+00  1.03056E+03  1.472E+00  1.200E+01  6.000E-02  1.491E+00
   1   13    7     6     5    3.4015E+01  1.0722E-01   3.3908E+01  0.000E+00  0.000E+00  0.000E+00  1.02738E+03  1.467E+00  1.200E+01  2.400E-02  1.489E+00
   1   14    9     7     1    1.5000E+02  2.9539E-08   1.5000E+02  0.000E+00  0.000E+00  0.000E+00  1.03986E+03  2.283E+00  5.528E+01  5.591E-09  1.761E+00
   1   13    8     7     2    1.5000E+02  3.2486E-14   1.5000E+02  0.000E+00  0.000E+00  0.000E+00  1.03478E+03  2.283E+00  5.527E+01  6.150E-15  1.761E+00
   1   13    7     7     3    1.5000E+02  2.9539E-08   1.5000E+02  0.000E+00  0.000E+00  0.000E+00  1.02970E+03  2.283E+00  5.528E+01  5.591E-09  1.761E+00
   1   13    6     8     1    1.8391E+02  2.7026E-19   1.8391E+02  0.000E+00  0.000E+00  0.000E+00  1.02491E+03  3.032E+00  4.397E+01  4.480E-20  2.011E+00
   1   13    5     8     2    1.8391E+02  2.7026E-19   1.8391E+02  0.000E+00  0.000E+00  0.000E+00  1.01866E+03  3.032E+00  4.397E+01  4.480E-20  2.011E+00
   1   13    4     8     3    1.8391E+02  0.0000E+00   1.8391E+02  0.000E+00  0.000E+00  0.000E+00  1.01242E+03  3.041E+00  4.409E+01  0.000E+00  1.752E+00
   1   13    3     8     4    1.8391E+02  5.8322E-08   1.8391E+02  0.000E+00  0.000E+00  0.000E+00  1.00616E+03  3.039E+00  4.406E+01  4.490E-08  4.330E-01
   1   13    2     8     5    1.8391E+02 -1.8627E+00   1.8577E+02  0.000E+00  0.000E+00  0.000E+00  9.99921E+02  3.046E+00  4.417E+01  4.501E+00 -1.379E-01
   1   13    1     8     6    1.8577E+02 -2.1650E+00   1.8794E+02  0.000E+00  0.000E+00  0.000E+00  9.94934E+02  3.059E+00  4.435E+01  2.712E+00 -2.661E-01
   1    6    8     9     1    0.0000E+00  0.0000E+00   0.0000E+00  0.000E+00  0.000E+00  0.000E+00  1.07850E+03  0.000E+00  4.000E+00  0.000E+00  1.000E+00



 UBDSV3 SAVING "     NETRECHARGE" ON UNIT 100 AT TIME STEP     5, STRESS PERIOD   5
 UBDSV3 SAVING "    NETDISCHARGE" ON UNIT 101 AT TIME STEP     5, STRESS PERIOD   5
 UBDSV3 SAVING "           GW ET" ON UNIT  61 AT TIME STEP     5, STRESS PERIOD   5
 UBDSV3 SAVING "    UZF RECHARGE" ON UNIT  61 AT TIME STEP     5, STRESS PERIOD   5
 UBDSV3 SAVING " SURFACE LEAKAGE" ON UNIT  61 AT TIME STEP     5, STRESS PERIOD   5
 UBDSV3 SAVING "       HORT+DUNN" ON UNIT  61 AT TIME STEP     5, STRESS PERIOD   5
 UBDSV3 SAVING "  STORAGE CHANGE" ON UNIT  61 AT TIME STEP     5, STRESS PERIOD   5


UNSATURATED ZONE PACKAGE VOLUMETRIC BUDGET FOR  TIME STEP     5 STRESS PERIOD    5
  ------------------------------------------------------------------------------



     CUMULATIVE VOLUMES      L**3       RATES FOR THIS TIME STEP      L**3/T
     ------------------                 ------------------------

           IN:                                      IN:
           ---                                      ---
        INFILTRATION =     9280125.0000          INFILTRATION =           0.8475

          OUT:                                     OUT:
          ----                                     ----
              UZF ET =     8512626.3322                UZF ET =          14.2869
        UZF RECHARGE =   242490926.8905          UZF RECHARGE =          27.8193

            IN - OUT =  -241723428.2227              IN - OUT =         -41.2587

          STORAGE:                                 STORAGE:
          --------                                 --------
      STORAGE CHANGE =  -241722716.3056        STORAGE CHANGE =         -41.2586

 PERCENT DISCREPANCY IS DIFFERENCE BETWEEN IN-OUT MINUS CHANGE IN STORAGE
 DIVIDED BY THE AVERAGE OF IN AND OUT TIMES 100

 PERCENT DISCREPANCY =          -0.00     PERCENT DISCREPANCY =          -0.00






1
  VOLUMETRIC BUDGET FOR ENTIRE MODEL AT END OF TIME STEP    5, STRESS PERIOD   5
  ------------------------------------------------------------------------------

     CUMULATIVE VOLUMES      L**3       RATES FOR THIS TIME STEP      L**3/T
     ------------------                 ------------------------

           IN:                                      IN:
           ---                                      ---
             STORAGE =      660152.1250               STORAGE =           1.2729
       CONSTANT HEAD =           0.0000         CONSTANT HEAD =           0.0000
               WELLS =           0.0000                 WELLS =           0.0000
     HEAD DEP BOUNDS =    11656260.0000       HEAD DEP BOUNDS =           1.0559
      STREAM LEAKAGE =    39547456.0000        STREAM LEAKAGE =           4.0918
        UZF RECHARGE =   242490928.0000          UZF RECHARGE =          27.8193
               GW ET =           0.0000                 GW ET =           0.0000
     SURFACE LEAKAGE =           0.0000       SURFACE LEAKAGE =           0.0000

            TOTAL IN =   294354784.0000              TOTAL IN =          34.2399

          OUT:                                     OUT:
          ----                                     ----
             STORAGE =   261403392.0000               STORAGE =          29.7030
       CONSTANT HEAD =           0.0000         CONSTANT HEAD =           0.0000
               WELLS =           0.0000                 WELLS =           0.0000
     HEAD DEP BOUNDS =     3141462.0000       HEAD DEP BOUNDS =           0.2938
      STREAM LEAKAGE =    27693166.0000        STREAM LEAKAGE =           4.0277
        UZF RECHARGE =           0.0000          UZF RECHARGE =           0.0000
               GW ET =     2095733.5000                 GW ET =           0.2131
     SURFACE LEAKAGE =           0.0000       SURFACE LEAKAGE =           0.0000

           TOTAL OUT =   294333760.0000             TOTAL OUT =          34.2376

            IN - OUT =       21024.0000              IN - OUT =       2.2850E-03

 PERCENT DISCREPANCY =           0.01     PERCENT DISCREPANCY =           0.01






         TIME SUMMARY AT END OF TIME STEP    5 IN STRESS PERIOD    5
                    SECONDS     MINUTES      HOURS       DAYS        YEARS
                    -----------------------------------------------------------
   TIME STEP LENGTH  87600.      1460.0      24.333      1.0139     2.77588E-03
 STRESS PERIOD TIME 4.38000E+05  7300.0      121.67      5.0694     1.38794E-02
         TOTAL TIME 1.09500E+07 1.82500E+05  3041.7      126.74     0.34698    
1
 
 SOLVING FOR HEAD 
                                                   Max.-Head-Change                         Max.-Flux-Residual
  Residual-Control   Outer-Iter.   Inner-Iter.     Column Row Layer    Maximum-Head-Change  Column Row Layer    Maximum-Flux-Residual          L2-NORM 
          0                 1           2             2   13     1      -0.1354835944E-01       2   13    1        -0.7701402022E+00      0.2084484801E+01
          0                 2           2             7    3     1       0.3463084543E-02       7    3    1         0.9028607531E-01      0.5134019815E+00
          0                 3           2             7    3     1       0.1549141631E-02       7    3    1         0.4038754695E-01      0.1944050600E+00
          0                 4           2             7    3     1       0.6929756421E-03       7    3    1         0.1806657570E-01      0.8459167823E-01
          0                 5           2             7    3     1       0.3099859610E-03       7    3    1         0.8081693337E-02      0.3770941269E-01
          0                 6           2             7    3     1       0.1386637241E-03       7    3    1         0.3615146313E-02      0.1687284251E-01
          0                 7           1             7    3     1       0.6202695824E-04       7    3    1         0.1617134407E-02      0.7554222130E-02
          0                 8           1             7    3     1       0.2774566116E-04       7    3    1         0.7233744430E-03      0.3382587746E-02
          0                 9           1             7    3     1       0.1241100319E-04       7    3    1         0.3235766811E-03      0.1514727910E-02
          0                10           1             7    3     1       0.5551574266E-05       7    3    1         0.1447399860E-03      0.6783319054E-03

    ------------------------------------------------
       NWT REQUIRED           10 OUTER ITERATIONS 
       AND A TOTAL OF         16 INNER ITERATIONS.
    ------------------------------------------------

 NO OUTPUT CONTROL FOR STRESS PERIOD    5   TIME STEP    6
 
 SOLVING FOR HEAD 
                                                   Max.-Head-Change                         Max.-Flux-Residual
  Residual-Control   Outer-Iter.   Inner-Iter.     Column Row Layer    Maximum-Head-Change  Column Row Layer    Maximum-Flux-Residual          L2-NORM 
          0                 1           2             2   13     1      -0.1237762546E-01       2   13    1        -0.7035216338E+00      0.2054968522E+01
          0                 2           2             7    3     1       0.3446566378E-02       7    3    1         0.8985229466E-01      0.5116464789E+00
          0                 3           2             7    3     1       0.1541817518E-02       7    3    1         0.4019522073E-01      0.1940373019E+00
          0                 4           2             7    3     1       0.6897279363E-03       7    3    1         0.1798129759E-01      0.8443238798E-01
          0                 5           2             7    3     1       0.3085457527E-03       7    3    1         0.8043878314E-02      0.3763821358E-01
          0                 6           2             7    3     1       0.1380250198E-03       7    3    1         0.3598376907E-02      0.1684111557E-01
          0                 7           1             7    3     1       0.6174368847E-04       7    3    1         0.1609697416E-02      0.7540088188E-02
          0                 8           1             7    3     1       0.2762002175E-04       7    3    1         0.7200760480E-03      0.3376293194E-02
          0                 9           1             7    3     1       0.1235527457E-04       7    3    1         0.3221137127E-03      0.1511926571E-02
          0                10           1             7    3     1       0.5526853916E-05       7    3    1         0.1440910638E-03      0.6770852254E-03

    ------------------------------------------------
       NWT REQUIRED           10 OUTER ITERATIONS 
       AND A TOTAL OF         16 INNER ITERATIONS.
    ------------------------------------------------

 NO OUTPUT CONTROL FOR STRESS PERIOD    5   TIME STEP    7
 
 SOLVING FOR HEAD 
                                                   Max.-Head-Change                         Max.-Flux-Residual
  Residual-Control   Outer-Iter.   Inner-Iter.     Column Row Layer    Maximum-Head-Change  Column Row Layer    Maximum-Flux-Residual          L2-NORM 
          0                 1           2             2   13     1      -0.1130908996E-01       2   13    1        -0.6426793528E+00      0.2029277972E+01
          0                 2           2             7    3     1       0.3430296381E-02       7    3    1         0.8942507267E-01      0.5100446490E+00
          0                 3           2             7    3     1       0.1534602588E-02       7    3    1         0.4000577982E-01      0.1936773824E+00
          0                 4           2             7    3     1       0.6865282705E-03       7    3    1         0.1789728894E-01      0.8427592657E-01
          0                 5           2             7    3     1       0.3071266838E-03       7    3    1         0.8006621853E-02      0.3756830264E-01
          0                 6           2             7    3     1       0.1373956175E-03       7    3    1         0.3581853281E-02      0.1680995974E-01
          0                 7           1             7    3     1       0.6146451227E-04       7    3    1         0.1602368587E-02      0.7526212389E-02
          0                 8           1             7    3     1       0.2749618377E-04       7    3    1         0.7168252523E-03      0.3370113699E-02
          0                 9           1             7    3     1       0.1230033906E-04       7    3    1         0.3206716982E-03      0.1509173889E-02
          0                10           1             8    3     1       0.5505512566E-05       7    3    1         0.1434513636E-03      0.6758581049E-03

    ------------------------------------------------
       NWT REQUIRED           10 OUTER ITERATIONS 
       AND A TOTAL OF         16 INNER ITERATIONS.
    ------------------------------------------------

 NO OUTPUT CONTROL FOR STRESS PERIOD    5   TIME STEP    8
 
 SOLVING FOR HEAD 
                                                   Max.-Head-Change                         Max.-Flux-Residual
  Residual-Control   Outer-Iter.   Inner-Iter.     Column Row Layer    Maximum-Head-Change  Column Row Layer    Maximum-Flux-Residual          L2-NORM 
          0                 1           2             2   13     1      -0.1033428651E-01       2   13    1        -0.5871724962E+00      0.2007087464E+01
          0                 2           2             7    3     1       0.3414335920E-02       7    3    1         0.8900603209E-01      0.5086136676E+00
          0                 3           2             7    3     1       0.1527523833E-02       7    3    1         0.3981993770E-01      0.1933288432E+00
          0                 4           2             7    3     1       0.6833885207E-03       7    3    1         0.1781486354E-01      0.8412261692E-01
          0                 5           2             7    3     1       0.3057339795E-03       7    3    1         0.7970062024E-02      0.3749972605E-01
          0                 6           2             7    3     1       0.1367778180E-03       7    3    1         0.3565636208E-02      0.1677939381E-01
          0                 7           1             7    3     1       0.6119044234E-04       7    3    1         0.1595174663E-02      0.7512597121E-02
          0                 8           1             7    3     1       0.2737459354E-04       7    3    1         0.7136338357E-03      0.3364049059E-02
          0                 9           1             8    3     1       0.1224950786E-04       7    3    1         0.3192558182E-03      0.1506472641E-02
          0                10           1             8    3     1       0.5500107666E-05       8    3    1         0.1429556448E-03      0.6746548474E-03

    ------------------------------------------------
       NWT REQUIRED           10 OUTER ITERATIONS 
       AND A TOTAL OF         16 INNER ITERATIONS.
    ------------------------------------------------

 NO OUTPUT CONTROL FOR STRESS PERIOD    5   TIME STEP    9
 
 SOLVING FOR HEAD 
                                                   Max.-Head-Change                         Max.-Flux-Residual
  Residual-Control   Outer-Iter.   Inner-Iter.     Column Row Layer    Maximum-Head-Change  Column Row Layer    Maximum-Flux-Residual          L2-NORM 
          0                 1           2             2   13     1      -0.9443559943E-02       2   13    1        -0.5365197791E+00      0.1988161841E+01
          0                 2           2             7    3     1       0.3398744272E-02       7    3    1         0.8859673810E-01      0.5073319301E+00
          0                 3           2             7    3     1       0.1520607347E-02       7    3    1         0.3963838363E-01      0.1929902004E+00
          0                 4           2             7    3     1       0.6803201679E-03       7    3    1         0.1773432482E-01      0.8397237790E-01
          0                 5           2             7    3     1       0.3043726913E-03       7    3    1         0.7934332326E-02      0.3743248608E-01
          0                 6           2             7    3     1       0.1361738426E-03       7    3    1         0.3549784400E-02      0.1674941812E-01
          0                 7           1             7    3     1       0.6092245586E-04       7    3    1         0.1588141467E-02      0.7499243478E-02
          0                 8           1             7    3     1       0.2725568037E-04       7    3    1         0.7105131457E-03      0.3358100898E-02
          0                 9           1             8    3     1       0.1223723654E-04       8    3    1         0.3180618784E-03      0.1503822781E-02
          0                10           1             8    3     1       0.5494489422E-05       8    3    1         0.1428119139E-03      0.6734745381E-03

    ------------------------------------------------
       NWT REQUIRED           10 OUTER ITERATIONS 
       AND A TOTAL OF         16 INNER ITERATIONS.
    ------------------------------------------------

 OUTPUT CONTROL FOR STRESS PERIOD    5   TIME STEP   10
    PRINT BUDGET
    SAVE BUDGET
 UBUDSV SAVING "         STORAGE" ON UNIT102 AT TIME STEP    10, STRESS PERIOD    5
 UBUDSV SAVING "   CONSTANT HEAD" ON UNIT102 AT TIME STEP    10, STRESS PERIOD    5
 UBUDSV SAVING "FLOW RIGHT FACE " ON UNIT102 AT TIME STEP    10, STRESS PERIOD    5
 UBUDSV SAVING "FLOW FRONT FACE " ON UNIT102 AT TIME STEP    10, STRESS PERIOD    5

  HEAD DEP BOUNDS   PERIOD    5   STEP    10
 BOUNDARY      1   LAYER   1   ROW    13   COL     1   RATE   -0.292356    
 BOUNDARY      2   LAYER   1   ROW    14   COL     9   RATE     1.05518    



 STREAM LISTING     PERIOD      5   STEP       10

 LAYER ROW COL. STREAM  RCH.  FLOW INTO     FLOW TO   FLOW OUT OF   OVRLND.     DIRECT     STREAM       STREAM     STREAM     STREAM   STREAMBED  STREAMBED
                SEG.NO.  NO.  STRM. RCH.    AQUIFER    STRM. RCH.    RUNOFF     PRECIP       ET          HEAD       DEPTH      WIDTH   CONDCTNC.   GRADIENT

   1    1    1     1     1    2.8000E+01  2.5860E-10   2.8000E+01  0.000E+00  0.000E+00  0.000E+00  1.09427E+03  1.221E+00  1.361E+01  6.126E-11  1.407E+00
   1    2    2     1     2    2.8000E+01  4.0178E-10   2.8000E+01  0.000E+00  0.000E+00  0.000E+00  1.08928E+03  1.220E+00  1.360E+01  9.520E-11  1.407E+00
   1    3    3     1     3    2.8000E+01  3.4455E-10   2.8000E+01  0.000E+00  0.000E+00  0.000E+00  1.08364E+03  1.221E+00  1.361E+01  8.163E-11  1.407E+00
   1    3    4     1     4    2.8000E+01  3.1878E-10   2.8000E+01  0.000E+00  0.000E+00  0.000E+00  1.07863E+03  1.221E+00  1.361E+01  7.552E-11  1.407E+00
   1    4    5     2     1    2.6000E+01  3.3006E-01   2.5670E+01  0.000E+00  0.000E+00  0.000E+00  1.07317E+03  1.232E+00  1.200E+01  7.800E-02  1.411E+00
   1    5    6     2     2    2.5670E+01  2.5339E-01   2.5417E+01  0.000E+00  0.000E+00  0.000E+00  1.06773E+03  1.223E+00  1.200E+01  6.000E-02  1.408E+00
   1    6    6     2     3    2.5417E+01  2.5296E-01   2.5164E+01  0.000E+00  0.000E+00  0.000E+00  1.06301E+03  1.216E+00  1.200E+01  6.000E-02  1.405E+00
   1    7    6     2     4    2.5164E+01  2.5252E-01   2.4911E+01  0.000E+00  0.000E+00  0.000E+00  1.05828E+03  1.209E+00  1.200E+01  6.000E-02  1.403E+00
   1    8    6     2     5    2.4911E+01  2.5208E-01   2.4659E+01  0.000E+00  0.000E+00  0.000E+00  1.05356E+03  1.201E+00  1.200E+01  6.000E-02  1.400E+00
   1    3    5     3     1    2.0000E+00  2.8252E-01   1.7175E+00  0.000E+00  0.000E+00  0.000E+00  1.07555E+03  1.909E+00  9.636E+00  7.227E-02  1.955E+00
   1    3    6     3     2    1.7175E+00  2.4905E-01   1.4684E+00  0.000E+00  0.000E+00  0.000E+00  1.07264E+03  1.727E+00  8.909E+00  6.682E-02  1.864E+00
   1    3    7     3     3    1.4684E+00  1.9718E-01   1.2712E+00  0.000E+00  0.000E+00  0.000E+00  1.06987E+03  1.555E+00  8.218E+00  5.547E-02  1.777E+00
   1    4    8     3     4    1.2712E+00  2.2567E-01   1.0456E+00  0.000E+00  0.000E+00  0.000E+00  1.06682E+03  1.364E+00  7.455E+00  6.709E-02  1.682E+00
   1    5    8     3     5    1.0456E+00  1.5790E-01   8.8768E-01  0.000E+00  0.000E+00  0.000E+00  1.06362E+03  1.164E+00  6.655E+00  4.991E-02  1.582E+00
   1    6    8     3     6    8.8768E-01  5.5980E-02   8.3170E-01  0.000E+00  0.000E+00  0.000E+00  1.06158E+03  1.036E+00  6.145E+00  1.844E-02  1.518E+00
   1    5   10     4     1    1.0000E+01  9.0919E-02   9.9091E+00  0.000E+00  0.000E+00  0.000E+00  1.07836E+03  6.368E-01  1.000E+01  2.500E-02  1.212E+00
   1    5    9     4     2    9.9091E+00  1.8158E-01   9.7275E+00  0.000E+00  0.000E+00  0.000E+00  1.07154E+03  6.315E-01  1.000E+01  5.000E-02  1.211E+00
   1    6    8     4     3    9.7275E+00  1.2689E-01   9.6006E+00  0.000E+00  0.000E+00  0.000E+00  1.06381E+03  6.256E-01  1.000E+01  3.500E-02  1.209E+00
   1    6    8     5     1    1.0432E+01  2.2686E-09   1.0432E+01  0.000E+00  0.000E+00  0.000E+00  1.05868E+03  6.790E-01  1.542E+01  6.166E-10  1.226E+00
   1    7    7     5     2    1.0432E+01  2.8306E-09   1.0432E+01  0.000E+00  0.000E+00  0.000E+00  1.05418E+03  6.784E-01  1.539E+01  7.695E-10  1.226E+00
   1    8    7     5     3    1.0432E+01  1.9868E-09   1.0432E+01  0.000E+00  0.000E+00  0.000E+00  1.04993E+03  6.794E-01  1.543E+01  5.400E-10  1.226E+00
   1    8    6     5     4    1.0432E+01  1.4217E-09   1.0432E+01  0.000E+00  0.000E+00  0.000E+00  1.04693E+03  6.800E-01  1.545E+01  3.863E-10  1.227E+00
   1    9    6     6     1    3.5091E+01  2.6959E-01   3.4822E+01  0.000E+00  0.000E+00  0.000E+00  1.04422E+03  1.493E+00  1.200E+01  6.000E-02  1.498E+00
   1   10    7     6     2    3.4822E+01  2.6917E-01   3.4553E+01  0.000E+00  0.000E+00  0.000E+00  1.03967E+03  1.486E+00  1.200E+01  6.000E-02  1.495E+00
   1   11    7     6     3    3.4553E+01  2.6876E-01   3.4284E+01  0.000E+00  0.000E+00  0.000E+00  1.03512E+03  1.479E+00  1.200E+01  6.000E-02  1.493E+00
   1   12    7     6     4    3.4284E+01  2.6834E-01   3.4015E+01  0.000E+00  0.000E+00  0.000E+00  1.03056E+03  1.472E+00  1.200E+01  6.000E-02  1.491E+00
   1   13    7     6     5    3.4015E+01  1.0722E-01   3.3908E+01  0.000E+00  0.000E+00  0.000E+00  1.02738E+03  1.467E+00  1.200E+01  2.400E-02  1.489E+00
   1   14    9     7     1    1.5000E+02  2.9539E-08   1.5000E+02  0.000E+00  0.000E+00  0.000E+00  1.03986E+03  2.283E+00  5.528E+01  5.591E-09  1.761E+00
   1   13    8     7     2    1.5000E+02  3.2486E-14   1.5000E+02  0.000E+00  0.000E+00  0.000E+00  1.03478E+03  2.283E+00  5.527E+01  6.150E-15  1.761E+00
   1   13    7     7     3    1.5000E+02  2.9539E-08   1.5000E+02  0.000E+00  0.000E+00  0.000E+00  1.02970E+03  2.283E+00  5.528E+01  5.591E-09  1.761E+00
   1   13    6     8     1    1.8391E+02  2.7026E-19   1.8391E+02  0.000E+00  0.000E+00  0.000E+00  1.02491E+03  3.032E+00  4.397E+01  4.480E-20  2.011E+00
   1   13    5     8     2    1.8391E+02  2.7026E-19   1.8391E+02  0.000E+00  0.000E+00  0.000E+00  1.01866E+03  3.032E+00  4.397E+01  4.480E-20  2.011E+00
   1   13    4     8     3    1.8391E+02  2.3428E-10   1.8391E+02  0.000E+00  0.000E+00  0.000E+00  1.01241E+03  3.033E+00  4.398E+01  4.482E-11  1.742E+00
   1   13    3     8     4    1.8391E+02  5.7944E-08   1.8391E+02  0.000E+00  0.000E+00  0.000E+00  1.00616E+03  3.039E+00  4.406E+01  4.490E-08  4.302E-01
   1   13    2     8     5    1.8391E+02 -1.6323E+00   1.8554E+02  0.000E+00  0.000E+00  0.000E+00  9.99921E+02  3.046E+00  4.416E+01  4.500E+00 -1.209E-01
   1   13    1     8     6    1.8554E+02 -2.0641E+00   1.8760E+02  0.000E+00  0.000E+00  0.000E+00  9.94932E+02  3.057E+00  4.433E+01  2.710E+00 -2.539E-01
   1    6    8     9     1    0.0000E+00  0.0000E+00   0.0000E+00  0.000E+00  0.000E+00  0.000E+00  1.07850E+03  0.000E+00  4.000E+00  0.000E+00  1.000E+00



 UBDSV3 SAVING "     NETRECHARGE" ON UNIT 100 AT TIME STEP    10, STRESS PERIOD   5
 UBDSV3 SAVING "    NETDISCHARGE" ON UNIT 101 AT TIME STEP    10, STRESS PERIOD   5
 UBDSV3 SAVING "           GW ET" ON UNIT  61 AT TIME STEP    10, STRESS PERIOD   5
 UBDSV3 SAVING "    UZF RECHARGE" ON UNIT  61 AT TIME STEP    10, STRESS PERIOD   5
 UBDSV3 SAVING " SURFACE LEAKAGE" ON UNIT  61 AT TIME STEP    10, STRESS PERIOD   5
 UBDSV3 SAVING "       HORT+DUNN" ON UNIT  61 AT TIME STEP    10, STRESS PERIOD   5
 UBDSV3 SAVING "  STORAGE CHANGE" ON UNIT  61 AT TIME STEP    10, STRESS PERIOD   5


UNSATURATED ZONE PACKAGE VOLUMETRIC BUDGET FOR  TIME STEP    10 STRESS PERIOD    5
  ------------------------------------------------------------------------------



     CUMULATIVE VOLUMES      L**3       RATES FOR THIS TIME STEP      L**3/T
     ------------------                 ------------------------

           IN:                                      IN:
           ---                                      ---
        INFILTRATION =     9651330.0000          INFILTRATION =           0.8475

          OUT:                                     OUT:
          ----                                     ----
              UZF ET =    14770462.7049                UZF ET =          14.2876
        UZF RECHARGE =   254654458.1434          UZF RECHARGE =          27.7368

            IN - OUT =  -259773590.8483              IN - OUT =         -41.1769

          STORAGE:                                 STORAGE:
          --------                                 --------
      STORAGE CHANGE =  -259772860.2461        STORAGE CHANGE =         -41.1768

 PERCENT DISCREPANCY IS DIFFERENCE BETWEEN IN-OUT MINUS CHANGE IN STORAGE
 DIVIDED BY THE AVERAGE OF IN AND OUT TIMES 100

 PERCENT DISCREPANCY =          -0.00     PERCENT DISCREPANCY =          -0.00






1
  VOLUMETRIC BUDGET FOR ENTIRE MODEL AT END OF TIME STEP   10, STRESS PERIOD   5
  ------------------------------------------------------------------------------

     CUMULATIVE VOLUMES      L**3       RATES FOR THIS TIME STEP      L**3/T
     ------------------                 ------------------------

           IN:                                      IN:
           ---                                      ---
             STORAGE =     1112209.2500               STORAGE =           0.8909
       CONSTANT HEAD =           0.0000         CONSTANT HEAD =           0.0000
               WELLS =           0.0000                 WELLS =           0.0000
     HEAD DEP BOUNDS =    12118562.0000       HEAD DEP BOUNDS =           1.0552
      STREAM LEAKAGE =    41339656.0000        STREAM LEAKAGE =           4.0918
        UZF RECHARGE =   254654448.0000          UZF RECHARGE =          27.7368
               GW ET =           0.0000                 GW ET =           0.0000
     SURFACE LEAKAGE =           0.0000       SURFACE LEAKAGE =           0.0000

            TOTAL IN =   309224864.0000              TOTAL IN =          33.7746

          OUT:                                     OUT:
          ----                                     ----
             STORAGE =   274378400.0000               STORAGE =          29.5713
       CONSTANT HEAD =           0.0000         CONSTANT HEAD =           0.0000
               WELLS =           0.0000                 WELLS =           0.0000
     HEAD DEP BOUNDS =     3269758.7500       HEAD DEP BOUNDS =           0.2924
      STREAM LEAKAGE =    29365784.0000        STREAM LEAKAGE =           3.6963
        UZF RECHARGE =           0.0000          UZF RECHARGE =           0.0000
               GW ET =     2188897.2500                 GW ET =           0.2124
     SURFACE LEAKAGE =           0.0000       SURFACE LEAKAGE =           0.0000

           TOTAL OUT =   309202848.0000             TOTAL OUT =          33.7724

            IN - OUT =       22016.0000              IN - OUT =       2.2621E-03

 PERCENT DISCREPANCY =           0.01     PERCENT DISCREPANCY =           0.01






         TIME SUMMARY AT END OF TIME STEP   10 IN STRESS PERIOD    5
                    SECONDS     MINUTES      HOURS       DAYS        YEARS
                    -----------------------------------------------------------
   TIME STEP LENGTH  87600.      1460.0      24.333      1.0139     2.77588E-03
 STRESS PERIOD TIME 8.76000E+05  14600.      243.33      10.139     2.77588E-02
         TOTAL TIME 1.13880E+07 1.89800E+05  3163.3      131.81     0.36086    
1
 
 SOLVING FOR HEAD 
                                                   Max.-Head-Change                         Max.-Flux-Residual
  Residual-Control   Outer-Iter.   Inner-Iter.     Column Row Layer    Maximum-Head-Change  Column Row Layer    Maximum-Flux-Residual          L2-NORM 
          0                 1           2             2   13     1      -0.8629438171E-02       2   13    1        -0.4902322464E+00      0.1971828796E+01
          0                 2           2             7    3     1       0.3383368016E-02       7    3    1         0.8819312833E-01      0.5061655428E+00
          0                 3           2             7    3     1       0.1513785795E-02       7    3    1         0.3945933466E-01      0.1926602772E+00
          0                 4           2             7    3     1       0.6772936617E-03       7    3    1         0.1765489024E-01      0.8382505957E-01
          0                 5           2             7    3     1       0.3030298506E-03       7    3    1         0.7899089346E-02      0.3736652675E-01
          0                 6           2             7    3     1       0.1355779998E-03       7    3    1         0.3534147160E-02      0.1672000965E-01
          0                 7           1             7    3     1       0.6065805560E-04       7    3    1         0.1581202875E-02      0.7486141195E-02
          0                 8           1             8    3     1       0.2722630020E-04       8    3    1         0.7076443400E-03      0.3352264023E-02
          0                 9           1             8    3     1       0.1222460781E-04       8    3    1         0.3177387185E-03      0.1501222267E-02
          0                10           1             8    3     1       0.5488713483E-05       8    3    1         0.1426640283E-03      0.6723165500E-03

    ------------------------------------------------
       NWT REQUIRED           10 OUTER ITERATIONS 
       AND A TOTAL OF         16 INNER ITERATIONS.
    ------------------------------------------------

 NO OUTPUT CONTROL FOR STRESS PERIOD    5   TIME STEP   11
 
 SOLVING FOR HEAD 
                                                   Max.-Head-Change                         Max.-Flux-Residual
  Residual-Control   Outer-Iter.   Inner-Iter.     Column Row Layer    Maximum-Head-Change  Column Row Layer    Maximum-Flux-Residual          L2-NORM 
          0                 1           2             2   13     1      -0.7885103602E-02       2   13    1        -0.4479208652E+00      0.1957721995E+01
          0                 2           2             7    3     1       0.3368269428E-02       7    3    1         0.8779686028E-01      0.5050970428E+00
          0                 3           2             7    3     1       0.1507086335E-02       7    3    1         0.3928351366E-01      0.1923374503E+00
          0                 4           2             7    3     1       0.6743208436E-03       7    3    1         0.1757687503E-01      0.8368013478E-01
          0                 5           2             7    3     1       0.3017106203E-03       7    3    1         0.7864470520E-02      0.3730161786E-01
          0                 6           2             7    3     1       0.1349925406E-03       7    3    1         0.3518784401E-02      0.1669106722E-01
          0                 7           1             8    3     1       0.6057412747E-04       8    3    1         0.1574387754E-02      0.7473245066E-02
          0                 8           1             8    3     1       0.2719792723E-04       8    3    1         0.7069180742E-03      0.3346517418E-02
          0                 9           1             8    3     1       0.1221163580E-04       8    3    1         0.3174064693E-03      0.1498661836E-02
          0                10           1             8    3     1       0.5482787227E-05       8    3    1         0.1425121485E-03      0.6711748451E-03

    ------------------------------------------------
       NWT REQUIRED           10 OUTER ITERATIONS 
       AND A TOTAL OF         16 INNER ITERATIONS.
    ------------------------------------------------

 NO OUTPUT CONTROL FOR STRESS PERIOD    5   TIME STEP   12
 
 SOLVING FOR HEAD 
                                                   Max.-Head-Change                         Max.-Flux-Residual
  Residual-Control   Outer-Iter.   Inner-Iter.     Column Row Layer    Maximum-Head-Change  Column Row Layer    Maximum-Flux-Residual          L2-NORM 
          0                 1           2             7    3     1       0.7494539555E-02       2   13    1        -0.4092328106E+00      0.1945524749E+01
          0                 2           2             7    3     1       0.3353439087E-02       7    3    1         0.8740767494E-01      0.5041134777E+00
          0                 3           2             7    3     1       0.1500505029E-02       7    3    1         0.3911081213E-01      0.1920218675E+00
          0                 4           2             7    3     1       0.6714000720E-03       7    3    1         0.1750023387E-01      0.8353780479E-01
          0                 5           2             7    3     1       0.3004143178E-03       7    3    1         0.7830456973E-02      0.3723785183E-01
          0                 6           2             8    3     1       0.1347641990E-03       7    3    1         0.3503688293E-02      0.1666262992E-01
          0                 7           1             8    3     1       0.6050977915E-04       8    3    1         0.1572739808E-02      0.7460572456E-02
          0                 8           1             8    3     1       0.2716852505E-04       8    3    1         0.7061646552E-03      0.3340870660E-02
          0                 9           1             8    3     1       0.1219821109E-04       8    3    1         0.3170622669E-03      0.1496145775E-02
          0                10           1             8    3     1       0.5476661007E-05       8    3    1         0.1423549996E-03      0.6700535617E-03

    ------------------------------------------------
       NWT REQUIRED           10 OUTER ITERATIONS 
       AND A TOTAL OF         16 INNER ITERATIONS.
    ------------------------------------------------

 NO OUTPUT CONTROL FOR STRESS PERIOD    5   TIME STEP   13
 
 SOLVING FOR HEAD 
                                                   Max.-Head-Change                         Max.-Flux-Residual
  Residual-Control   Outer-Iter.   Inner-Iter.     Column Row Layer    Maximum-Head-Change  Column Row Layer    Maximum-Flux-Residual          L2-NORM 
          0                 1           2             7    3     1       0.7461708237E-02       2   13    1        -0.3738529570E+00      0.1934986214E+01
          0                 2           2             7    3     1       0.3338869118E-02       7    3    1         0.8702534867E-01      0.5032048300E+00
          0                 3           2             7    3     1       0.1494038730E-02       7    3    1         0.3894114004E-01      0.1917131639E+00
          0                 4           2             7    3     1       0.6685301050E-03       7    3    1         0.1742493086E-01      0.8339797280E-01
          0                 5           2             8    3     1       0.2998197378E-03       7    3    1         0.7797034541E-02      0.3717518679E-01
          0                 6           2             8    3     1       0.1346212554E-03       8    3    1         0.3498992263E-02      0.1663468091E-01
          0                 7           1             8    3     1       0.6044447315E-04       8    3    1         0.1571066197E-02      0.7448116453E-02
          0                 8           1             8    3     1       0.2713870931E-04       8    3    1         0.7054001386E-03      0.3335320014E-02
          0                 9           1             8    3     1       0.1218460705E-04       8    3    1         0.3167132651E-03      0.1493672082E-02
          0                10           1             8    3     1       0.5470458128E-05       8    3    1         0.1421957853E-03      0.6689769057E-03

    ------------------------------------------------
       NWT REQUIRED           10 OUTER ITERATIONS 
       AND A TOTAL OF         16 INNER ITERATIONS.
    ------------------------------------------------

 NO OUTPUT CONTROL FOR STRESS PERIOD    5   TIME STEP   14
 
 SOLVING FOR HEAD 
                                                   Max.-Head-Change                         Max.-Flux-Residual
  Residual-Control   Outer-Iter.   Inner-Iter.     Column Row Layer    Maximum-Head-Change  Column Row Layer    Maximum-Flux-Residual          L2-NORM 
          0                 1           2             7    3     1       0.7429446569E-02       2   13    1        -0.3414915197E+00      0.1925857523E+01
          0                 2           2             7    3     1       0.3324549527E-02       7    3    1         0.8664964425E-01      0.5023580137E+00
          0                 3           2             7    3     1       0.1487682488E-02       7    3    1         0.3877437850E-01      0.1914099207E+00
          0                 4           2             8    3     1       0.6670138906E-03       7    3    1         0.1735090723E-01      0.8326011970E-01
          0                 5           2             8    3     1       0.2994957743E-03       8    3    1         0.7784272925E-02      0.3711339387E-01
          0                 6           2             8    3     1       0.1344733298E-03       8    3    1         0.3495199635E-02      0.1660711836E-01
          0                 7           1             8    3     1       0.6037697256E-04       8    3    1         0.1569334652E-02      0.7435831917E-02
          0                 8           1             8    3     1       0.2710792677E-04       8    3    1         0.7046100994E-03      0.3329845390E-02
          0                 9           1             8    3     1       0.1217057720E-04       8    3    1         0.3163530179E-03      0.1491231681E-02
          0                10           1             8    3     1       0.5464067540E-05       8    3    1         0.1420316150E-03      0.6678634455E-03

    ------------------------------------------------
       NWT REQUIRED           10 OUTER ITERATIONS 
       AND A TOTAL OF         16 INNER ITERATIONS.
    ------------------------------------------------

 OUTPUT CONTROL FOR STRESS PERIOD    5   TIME STEP   15
    PRINT BUDGET
    SAVE BUDGET
 UBUDSV SAVING "         STORAGE" ON UNIT102 AT TIME STEP    15, STRESS PERIOD    5
 UBUDSV SAVING "   CONSTANT HEAD" ON UNIT102 AT TIME STEP    15, STRESS PERIOD    5
 UBUDSV SAVING "FLOW RIGHT FACE " ON UNIT102 AT TIME STEP    15, STRESS PERIOD    5
 UBUDSV SAVING "FLOW FRONT FACE " ON UNIT102 AT TIME STEP    15, STRESS PERIOD    5

  HEAD DEP BOUNDS   PERIOD    5   STEP    15
 BOUNDARY      1   LAYER   1   ROW    13   COL     1   RATE   -0.291197    
 BOUNDARY      2   LAYER   1   ROW    14   COL     9   RATE     1.05441    



 STREAM LISTING     PERIOD      5   STEP       15

 LAYER ROW COL. STREAM  RCH.  FLOW INTO     FLOW TO   FLOW OUT OF   OVRLND.     DIRECT     STREAM       STREAM     STREAM     STREAM   STREAMBED  STREAMBED
                SEG.NO.  NO.  STRM. RCH.    AQUIFER    STRM. RCH.    RUNOFF     PRECIP       ET          HEAD       DEPTH      WIDTH   CONDCTNC.   GRADIENT

   1    1    1     1     1    2.8000E+01  2.5860E-10   2.8000E+01  0.000E+00  0.000E+00  0.000E+00  1.09427E+03  1.221E+00  1.361E+01  6.126E-11  1.407E+00
   1    2    2     1     2    2.8000E+01  4.0178E-10   2.8000E+01  0.000E+00  0.000E+00  0.000E+00  1.08928E+03  1.220E+00  1.360E+01  9.520E-11  1.407E+00
   1    3    3     1     3    2.8000E+01  3.4455E-10   2.8000E+01  0.000E+00  0.000E+00  0.000E+00  1.08364E+03  1.221E+00  1.361E+01  8.163E-11  1.407E+00
   1    3    4     1     4    2.8000E+01  3.1878E-10   2.8000E+01  0.000E+00  0.000E+00  0.000E+00  1.07863E+03  1.221E+00  1.361E+01  7.552E-11  1.407E+00
   1    4    5     2     1    2.6000E+01  3.3006E-01   2.5670E+01  0.000E+00  0.000E+00  0.000E+00  1.07317E+03  1.232E+00  1.200E+01  7.800E-02  1.411E+00
   1    5    6     2     2    2.5670E+01  2.5339E-01   2.5417E+01  0.000E+00  0.000E+00  0.000E+00  1.06773E+03  1.223E+00  1.200E+01  6.000E-02  1.408E+00
   1    6    6     2     3    2.5417E+01  2.5296E-01   2.5164E+01  0.000E+00  0.000E+00  0.000E+00  1.06301E+03  1.216E+00  1.200E+01  6.000E-02  1.405E+00
   1    7    6     2     4    2.5164E+01  2.5252E-01   2.4911E+01  0.000E+00  0.000E+00  0.000E+00  1.05828E+03  1.209E+00  1.200E+01  6.000E-02  1.403E+00
   1    8    6     2     5    2.4911E+01  2.5208E-01   2.4659E+01  0.000E+00  0.000E+00  0.000E+00  1.05356E+03  1.201E+00  1.200E+01  6.000E-02  1.400E+00
   1    3    5     3     1    2.0000E+00  2.8252E-01   1.7175E+00  0.000E+00  0.000E+00  0.000E+00  1.07555E+03  1.909E+00  9.636E+00  7.227E-02  1.955E+00
   1    3    6     3     2    1.7175E+00  2.4905E-01   1.4684E+00  0.000E+00  0.000E+00  0.000E+00  1.07264E+03  1.727E+00  8.909E+00  6.682E-02  1.864E+00
   1    3    7     3     3    1.4684E+00  1.9718E-01   1.2712E+00  0.000E+00  0.000E+00  0.000E+00  1.06987E+03  1.555E+00  8.218E+00  5.547E-02  1.777E+00
   1    4    8     3     4    1.2712E+00  2.2567E-01   1.0456E+00  0.000E+00  0.000E+00  0.000E+00  1.06682E+03  1.364E+00  7.455E+00  6.709E-02  1.682E+00
   1    5    8     3     5    1.0456E+00  1.5790E-01   8.8768E-01  0.000E+00  0.000E+00  0.000E+00  1.06362E+03  1.164E+00  6.655E+00  4.991E-02  1.582E+00
   1    6    8     3     6    8.8768E-01  5.5980E-02   8.3170E-01  0.000E+00  0.000E+00  0.000E+00  1.06158E+03  1.036E+00  6.145E+00  1.844E-02  1.518E+00
   1    5   10     4     1    1.0000E+01  9.0919E-02   9.9091E+00  0.000E+00  0.000E+00  0.000E+00  1.07836E+03  6.368E-01  1.000E+01  2.500E-02  1.212E+00
   1    5    9     4     2    9.9091E+00  1.8158E-01   9.7275E+00  0.000E+00  0.000E+00  0.000E+00  1.07154E+03  6.315E-01  1.000E+01  5.000E-02  1.211E+00
   1    6    8     4     3    9.7275E+00  1.2689E-01   9.6006E+00  0.000E+00  0.000E+00  0.000E+00  1.06381E+03  6.256E-01  1.000E+01  3.500E-02  1.209E+00
   1    6    8     5     1    1.0432E+01  2.2686E-09   1.0432E+01  0.000E+00  0.000E+00  0.000E+00  1.05868E+03  6.790E-01  1.542E+01  6.166E-10  1.226E+00
   1    7    7     5     2    1.0432E+01  2.8306E-09   1.0432E+01  0.000E+00  0.000E+00  0.000E+00  1.05418E+03  6.784E-01  1.539E+01  7.695E-10  1.226E+00
   1    8    7     5     3    1.0432E+01  1.9868E-09   1.0432E+01  0.000E+00  0.000E+00  0.000E+00  1.04993E+03  6.794E-01  1.543E+01  5.400E-10  1.226E+00
   1    8    6     5     4    1.0432E+01  1.4217E-09   1.0432E+01  0.000E+00  0.000E+00  0.000E+00  1.04693E+03  6.800E-01  1.545E+01  3.863E-10  1.227E+00
   1    9    6     6     1    3.5091E+01  2.6959E-01   3.4822E+01  0.000E+00  0.000E+00  0.000E+00  1.04422E+03  1.493E+00  1.200E+01  6.000E-02  1.498E+00
   1   10    7     6     2    3.4822E+01  2.6917E-01   3.4553E+01  0.000E+00  0.000E+00  0.000E+00  1.03967E+03  1.486E+00  1.200E+01  6.000E-02  1.495E+00
   1   11    7     6     3    3.4553E+01  2.6876E-01   3.4284E+01  0.000E+00  0.000E+00  0.000E+00  1.03512E+03  1.479E+00  1.200E+01  6.000E-02  1.493E+00
   1   12    7     6     4    3.4284E+01  2.6834E-01   3.4015E+01  0.000E+00  0.000E+00  0.000E+00  1.03056E+03  1.472E+00  1.200E+01  6.000E-02  1.491E+00
   1   13    7     6     5    3.4015E+01  1.0722E-01   3.3908E+01  0.000E+00  0.000E+00  0.000E+00  1.02738E+03  1.467E+00  1.200E+01  2.400E-02  1.489E+00
   1   14    9     7     1    1.5000E+02  2.9539E-08   1.5000E+02  0.000E+00  0.000E+00  0.000E+00  1.03986E+03  2.283E+00  5.528E+01  5.591E-09  1.761E+00
   1   13    8     7     2    1.5000E+02  3.2486E-14   1.5000E+02  0.000E+00  0.000E+00  0.000E+00  1.03478E+03  2.283E+00  5.527E+01  6.150E-15  1.761E+00
   1   13    7     7     3    1.5000E+02  2.9539E-08   1.5000E+02  0.000E+00  0.000E+00  0.000E+00  1.02970E+03  2.283E+00  5.528E+01  5.591E-09  1.761E+00
   1   13    6     8     1    1.8391E+02  2.7026E-19   1.8391E+02  0.000E+00  0.000E+00  0.000E+00  1.02491E+03  3.032E+00  4.397E+01  4.480E-20  2.011E+00
   1   13    5     8     2    1.8391E+02  2.7026E-19   1.8391E+02  0.000E+00  0.000E+00  0.000E+00  1.01866E+03  3.032E+00  4.397E+01  4.480E-20  2.011E+00
   1   13    4     8     3    1.8391E+02  2.3332E-18   1.8391E+02  0.000E+00  0.000E+00  0.000E+00  1.01241E+03  3.033E+00  4.398E+01  4.482E-19  1.735E+00
   1   13    3     8     4    1.8391E+02  5.7627E-08   1.8391E+02  0.000E+00  0.000E+00  0.000E+00  1.00616E+03  3.039E+00  4.406E+01  4.490E-08  4.278E-01
   1   13    2     8     5    1.8391E+02 -1.4856E+00   1.8539E+02  0.000E+00  0.000E+00  0.000E+00  9.99920E+02  3.045E+00  4.415E+01  4.500E+00 -1.101E-01
   1   13    1     8     6    1.8539E+02 -1.9838E+00   1.8738E+02  0.000E+00  0.000E+00  0.000E+00  9.94931E+02  3.056E+00  4.431E+01  2.709E+00 -2.441E-01
   1    6    8     9     1    0.0000E+00  0.0000E+00   0.0000E+00  0.000E+00  0.000E+00  0.000E+00  1.07850E+03  0.000E+00  4.000E+00  0.000E+00  1.000E+00



 UBDSV3 SAVING "     NETRECHARGE" ON UNIT 100 AT TIME STEP    15, STRESS PERIOD   5
 UBDSV3 SAVING "    NETDISCHARGE" ON UNIT 101 AT TIME STEP    15, STRESS PERIOD   5
 UBDSV3 SAVING "           GW ET" ON UNIT  61 AT TIME STEP    15, STRESS PERIOD   5
 UBDSV3 SAVING "    UZF RECHARGE" ON UNIT  61 AT TIME STEP    15, STRESS PERIOD   5
 UBDSV3 SAVING " SURFACE LEAKAGE" ON UNIT  61 AT TIME STEP    15, STRESS PERIOD   5
 UBDSV3 SAVING "       HORT+DUNN" ON UNIT  61 AT TIME STEP    15, STRESS PERIOD   5
 UBDSV3 SAVING "  STORAGE CHANGE" ON UNIT  61 AT TIME STEP    15, STRESS PERIOD   5


UNSATURATED ZONE PACKAGE VOLUMETRIC BUDGET FOR  TIME STEP    15 STRESS PERIOD    5
  ------------------------------------------------------------------------------



     CUMULATIVE VOLUMES      L**3       RATES FOR THIS TIME STEP      L**3/T
     ------------------                 ------------------------

           IN:                                      IN:
           ---                                      ---
        INFILTRATION =    10022535.0000          INFILTRATION =           0.8475

          OUT:                                     OUT:
          ----                                     ----
              UZF ET =    21028580.1797                UZF ET =          14.2882
        UZF RECHARGE =   266787998.8729          UZF RECHARGE =          27.6799

            IN - OUT =  -277794044.0526              IN - OUT =         -41.1206

          STORAGE:                                 STORAGE:
          --------                                 --------
      STORAGE CHANGE =  -277793297.7797        STORAGE CHANGE =         -41.1206

 PERCENT DISCREPANCY IS DIFFERENCE BETWEEN IN-OUT MINUS CHANGE IN STORAGE
 DIVIDED BY THE AVERAGE OF IN AND OUT TIMES 100

 PERCENT DISCREPANCY =          -0.00     PERCENT DISCREPANCY =          -0.00






1
  VOLUMETRIC BUDGET FOR ENTIRE MODEL AT END OF TIME STEP   15, STRESS PERIOD   5
  ------------------------------------------------------------------------------

     CUMULATIVE VOLUMES      L**3       RATES FOR THIS TIME STEP      L**3/T
     ------------------                 ------------------------

           IN:                                      IN:
           ---                                      ---
             STORAGE =     1429907.7500               STORAGE =           0.6278
       CONSTANT HEAD =           0.0000         CONSTANT HEAD =           0.0000
               WELLS =           0.0000                 WELLS =           0.0000
     HEAD DEP BOUNDS =    12580528.0000       HEAD DEP BOUNDS =           1.0544
      STREAM LEAKAGE =    43131856.0000        STREAM LEAKAGE =           4.0918
        UZF RECHARGE =   266788000.0000          UZF RECHARGE =          27.6799
               GW ET =           0.0000                 GW ET =           0.0000
     SURFACE LEAKAGE =           0.0000       SURFACE LEAKAGE =           0.0000

            TOTAL IN =   323930304.0000              TOTAL IN =          33.4539

          OUT:                                     OUT:
          ----                                     ----
             STORAGE =   287305856.0000               STORAGE =          29.4793
       CONSTANT HEAD =           0.0000         CONSTANT HEAD =           0.0000
               WELLS =           0.0000                 WELLS =           0.0000
     HEAD DEP BOUNDS =     3397496.7500       HEAD DEP BOUNDS =           0.2912
      STREAM LEAKAGE =    30922150.0000        STREAM LEAKAGE =           3.4694
        UZF RECHARGE =           0.0000          UZF RECHARGE =           0.0000
               GW ET =     2281779.5000                 GW ET =           0.2118
     SURFACE LEAKAGE =           0.0000       SURFACE LEAKAGE =           0.0000

           TOTAL OUT =   323907296.0000             TOTAL OUT =          33.4517

            IN - OUT =       23008.0000              IN - OUT =       2.2354E-03

 PERCENT DISCREPANCY =           0.01     PERCENT DISCREPANCY =           0.01






         TIME SUMMARY AT END OF TIME STEP   15 IN STRESS PERIOD    5
                    SECONDS     MINUTES      HOURS       DAYS        YEARS
                    -----------------------------------------------------------
   TIME STEP LENGTH  87600.      1460.0      24.333      1.0139     2.77588E-03
 STRESS PERIOD TIME 1.31400E+06  21900.      365.00      15.208     4.16381E-02
         TOTAL TIME 1.18260E+07 1.97100E+05  3285.0      136.88     0.37474    
1
 
 SOLVING FOR HEAD 
                                                   Max.-Head-Change                         Max.-Flux-Residual
  Residual-Control   Outer-Iter.   Inner-Iter.     Column Row Layer    Maximum-Head-Change  Column Row Layer    Maximum-Flux-Residual          L2-NORM 
          0                 1           2             7    3     1       0.7397895282E-02       6    4    1         0.3339754304E+00      0.1917952616E+01
          0                 2           2             7    3     1       0.3310543278E-02       7    3    1         0.8628220300E-01      0.5015681323E+00
          0                 3           2             8    3     1       0.1483896098E-02       7    3    1         0.3861126185E-01      0.1911129266E+00
          0                 4           2             8    3     1       0.6662875139E-03       8    3    1         0.1731757405E-01      0.8312462702E-01
          0                 5           2             8    3     1       0.2991642214E-03       8    3    1         0.7775769838E-02      0.3705264465E-01
          0                 6           2             8    3     1       0.1343220889E-03       8    3    1         0.3491318886E-02      0.1658001896E-01
          0                 7           1             8    3     1       0.6030802370E-04       8    3    1         0.1567564605E-02      0.7423752625E-02
          0                 8           1             8    3     1       0.2707651170E-04       8    3    1         0.7038032422E-03      0.3324461229E-02
          0                 9           1             8    3     1       0.1215627134E-04       8    3    1         0.3159854273E-03      0.1488832144E-02
          0                10           1             8    3     1       0.5457556024E-05       8    3    1         0.1418642348E-03      0.6667938139E-03

    ------------------------------------------------
       NWT REQUIRED           10 OUTER ITERATIONS 
       AND A TOTAL OF         16 INNER ITERATIONS.
    ------------------------------------------------

 NO OUTPUT CONTROL FOR STRESS PERIOD    5   TIME STEP   16
 
 SOLVING FOR HEAD 
                                                   Max.-Head-Change                         Max.-Flux-Residual
  Residual-Control   Outer-Iter.   Inner-Iter.     Column Row Layer    Maximum-Head-Change  Column Row Layer    Maximum-Flux-Residual          L2-NORM 
          0                 1           2             7    3     1       0.7366710268E-02       6    4    1         0.3330331093E+00      0.1894659312E+01
          0                 2           2             7    6     1       0.4217976283E-02       7    6    1         0.2276468320E+00      0.5481590847E+00
          0                 3           2             8    3     1       0.1482267337E-02       8    3    1         0.3852565983E-01      0.1943782851E+00
          0                 4           2             8    3     1       0.6655442564E-03       8    3    1         0.1729850838E-01      0.8322107708E-01
          0                 5           2             8    3     1       0.2988252594E-03       8    3    1         0.7767070555E-02      0.3700754511E-01
          0                 6           2             8    3     1       0.1341675968E-03       8    3    1         0.3487352022E-02      0.1655436919E-01
          0                 7           1             8    3     1       0.6023764870E-04       8    3    1         0.1565756777E-02      0.7411969342E-02
          0                 8           1             8    3     1       0.2704447160E-04       8    3    1         0.7029798165E-03      0.3319186964E-02
          0                 9           1             8    3     1       0.1214169125E-04       8    3    1         0.3156105708E-03      0.1486480727E-02
          0                10           1             8    3     1       0.5450924830E-05       8    3    1         0.1416936737E-03      0.6657447736E-03

    ------------------------------------------------
       NWT REQUIRED           10 OUTER ITERATIONS 
       AND A TOTAL OF         16 INNER ITERATIONS.
    ------------------------------------------------

 NO OUTPUT CONTROL FOR STRESS PERIOD    5   TIME STEP   17
 
 SOLVING FOR HEAD 
                                                   Max.-Head-Change                         Max.-Flux-Residual
  Residual-Control   Outer-Iter.   Inner-Iter.     Column Row Layer    Maximum-Head-Change  Column Row Layer    Maximum-Flux-Residual          L2-NORM 
          0                 1           2             7    6     1      -0.2889740166E+00       7    6    1        -0.1574789709E+02      0.1586071422E+02
          0                 2           2             7    6     1       0.3170385333E+00       7    6    1         0.1745123617E+02      0.1745815081E+02
          0                 3           2             7    6     1      -0.1826956470E-01       7    6    1        -0.1015514579E+01      0.1037907128E+01
          0                 4           2             7    6     1      -0.3228916743E-02       7    6    1        -0.1793192231E+00      0.1978263220E+00
          0                 5           2             7    6     1      -0.5713845650E-03       7    6    1        -0.3170641099E-01      0.4868969767E-01
          0                 6           2             8    3     1       0.1340088142E-03       7    6    1        -0.5612950353E-02      0.1745835023E-01
          0                 7           1             8    3     1       0.6016544014E-04       8    3    1         0.1563899294E-02      0.7468669487E-02
          0                 8           1             8    3     1       0.2701165215E-04       8    3    1         0.7021351954E-03      0.3319477352E-02
          0                 9           1             8    3     1       0.1212678300E-04       8    3    1         0.3152267283E-03      0.1484836359E-02
          0                10           1             8    3     1       0.5444156075E-05       8    3    1         0.1415193235E-03      0.6648854551E-03

    ------------------------------------------------
       NWT REQUIRED           10 OUTER ITERATIONS 
       AND A TOTAL OF         16 INNER ITERATIONS.
    ------------------------------------------------

 NO OUTPUT CONTROL FOR STRESS PERIOD    5   TIME STEP   18
 
 SOLVING FOR HEAD 
                                                   Max.-Head-Change                         Max.-Flux-Residual
  Residual-Control   Outer-Iter.   Inner-Iter.     Column Row Layer    Maximum-Head-Change  Column Row Layer    Maximum-Flux-Residual          L2-NORM 
          0                 1           2             7    6     1      -0.2889761161E+00       7    6    1        -0.1574803334E+02      0.1586023112E+02
          0                 2           2             7    6     1       0.3170376922E+00       7    6    1         0.1745120132E+02      0.1745809638E+02
          0                 3           2             7    6     1      -0.1826940591E-01       7    6    1        -0.1015506469E+01      0.1037846585E+01
          0                 4           2             7    6     1      -0.3228885460E-02       7    6    1        -0.1793176105E+00      0.1977705405E+00
          0                 5           2             7    6     1      -0.5713784848E-03       7    6    1        -0.3170609442E-01      0.4864540034E-01
          0                 6           2             8    3     1       0.1338483380E-03       7    6    1        -0.5612889074E-02      0.1743377373E-01
          0                 7           1             8    3     1       0.6009244761E-04       8    3    1         0.1562021973E-02      0.7457207489E-02
          0                 8           1             8    3     1       0.2697846692E-04       8    3    1         0.7012813720E-03      0.3314329414E-02
          0                 9           1             8    3     1       0.1211170256E-04       8    3    1         0.3148385790E-03      0.1482538732E-02
          0                10           1             8    3     1       0.5437305659E-05       8    3    1         0.1413429443E-03      0.6638604208E-03

    ------------------------------------------------
       NWT REQUIRED           10 OUTER ITERATIONS 
       AND A TOTAL OF         16 INNER ITERATIONS.
    ------------------------------------------------

 NO OUTPUT CONTROL FOR STRESS PERIOD    5   TIME STEP   19
 
 SOLVING FOR HEAD 
                                                   Max.-Head-Change                         Max.-Flux-Residual
  Residual-Control   Outer-Iter.   Inner-Iter.     Column Row Layer    Maximum-Head-Change  Column Row Layer    Maximum-Flux-Residual          L2-NORM 
          0                 1           2             7    6     1      -0.2889779844E+00       7    6    1        -0.1574815705E+02      0.1585981752E+02
          0                 2           2             7    6     1       0.3170368671E+00       7    6    1         0.1745116739E+02      0.1745804383E+02
          0                 3           2             7    6     1      -0.1826922317E-01       7    6    1        -0.1015497052E+01      0.1037785651E+01
          0                 4           2             7    6     1      -0.3228849830E-02       7    6    1        -0.1793157602E+00      0.1977152716E+00
          0                 5           2             7    6     1      -0.5713716186E-03       7    6    1        -0.3170573479E-01      0.4860162879E-01
          0                 6           2             8    3     1       0.1336835699E-03       7    6    1        -0.5612819987E-02      0.1740948964E-01
          0                 7           1             8    3     1       0.6001756186E-04       8    3    1         0.1560094720E-02      0.7445881028E-02
          0                 8           1             8    3     1       0.2694444607E-04       8    3    1         0.7004055143E-03      0.3309241563E-02
          0                 9           1             8    3     1       0.1209625320E-04       8    3    1         0.3144407085E-03      0.1480267221E-02
          0                10           1             8    3     1       0.5430292545E-05       8    3    1         0.1411622816E-03      0.6628474653E-03

    ------------------------------------------------
       NWT REQUIRED           10 OUTER ITERATIONS 
       AND A TOTAL OF         16 INNER ITERATIONS.
    ------------------------------------------------

 NO OUTPUT CONTROL FOR STRESS PERIOD    5   TIME STEP   20
 
 SOLVING FOR HEAD 
                                                   Max.-Head-Change                         Max.-Flux-Residual
  Residual-Control   Outer-Iter.   Inner-Iter.     Column Row Layer    Maximum-Head-Change  Column Row Layer    Maximum-Flux-Residual          L2-NORM 
          0                 1           2             7    6     1      -0.2889795245E+00       7    6    1        -0.1574826264E+02      0.1585945696E+02
          0                 2           2             7    6     1       0.3170360451E+00       7    6    1         0.1745113371E+02      0.1745799240E+02
          0                 3           2             7    6     1      -0.1826899193E-01       7    6    1        -0.1015484957E+01      0.1037722990E+01
          0                 4           2             7    6     1      -0.3228805544E-02       7    6    1        -0.1793134321E+00      0.1976603490E+00
          0                 5           2             7    6     1      -0.5713632066E-03       7    6    1        -0.3170528986E-01      0.4855839771E-01
          0                 6           2             8    3     1       0.1335147125E-03       7    6    1        -0.5612735677E-02      0.1738551870E-01
          0                 7           1             8    3     1       0.5994087682E-04       8    3    1         0.1558119918E-02      0.7434700152E-02
          0                 8           1             8    3     1       0.2690963423E-04       8    3    1         0.6995087457E-03      0.3304219201E-02
          0                 9           1             8    3     1       0.1208045581E-04       8    3    1         0.3140336378E-03      0.1478025123E-02
          0                10           1             8    3     1       0.5423126614E-05       8    3    1         0.1409775696E-03      0.6618474162E-03

    ------------------------------------------------
       NWT REQUIRED           10 OUTER ITERATIONS 
       AND A TOTAL OF         16 INNER ITERATIONS.
    ------------------------------------------------

 NO OUTPUT CONTROL FOR STRESS PERIOD    5   TIME STEP   21
 
 SOLVING FOR HEAD 
                                                   Max.-Head-Change                         Max.-Flux-Residual
  Residual-Control   Outer-Iter.   Inner-Iter.     Column Row Layer    Maximum-Head-Change  Column Row Layer    Maximum-Flux-Residual          L2-NORM 
          0                 1           2             7    6     1      -0.2889807590E+00       7    6    1        -0.1574835151E+02      0.1585913515E+02
          0                 2           2             7    6     1       0.3170352271E+00       7    6    1         0.1745110032E+02      0.1745794122E+02
          0                 3           2             7    6     1      -0.1826871562E-01       7    6    1        -0.1015470379E+01      0.1037658113E+01
          0                 4           2             7    6     1      -0.3228753190E-02       7    6    1        -0.1793106593E+00      0.1976056841E+00
          0                 5           2             7    6     1      -0.5713533509E-03       7    6    1        -0.3170476537E-01      0.4851571870E-01
          0                 6           2             8    3     1       0.1333447883E-03       7    6    1        -0.5612637137E-02      0.1736187703E-01
          0                 7           1             8    3     1       0.5986373994E-04       8    3    1         0.1556132804E-02      0.7423673355E-02
          0                 8           1             8    3     1       0.2687463107E-04       8    3    1         0.6986067576E-03      0.3299265217E-02
          0                 9           1             8    3     1       0.1206457776E-04       8    3    1         0.3136243634E-03      0.1475813394E-02
          0                10           1             8    3     1       0.5415926542E-05       8    3    1         0.1407919307E-03      0.6608609397E-03

    ------------------------------------------------
       NWT REQUIRED           10 OUTER ITERATIONS 
       AND A TOTAL OF         16 INNER ITERATIONS.
    ------------------------------------------------

 NO OUTPUT CONTROL FOR STRESS PERIOD    5   TIME STEP   22
 
 SOLVING FOR HEAD 
                                                   Max.-Head-Change                         Max.-Flux-Residual
  Residual-Control   Outer-Iter.   Inner-Iter.     Column Row Layer    Maximum-Head-Change  Column Row Layer    Maximum-Flux-Residual          L2-NORM 
          0                 1           2             7    6     1      -0.2889817121E+00       7    6    1        -0.1574842478E+02      0.1585879276E+02
          0                 2           2             7    6     1       0.3170344124E+00       7    6    1         0.1745106719E+02      0.1745789014E+02
          0                 3           2             7    6     1      -0.1826839868E-01       7    6    1        -0.1015453558E+01      0.1037591696E+01
          0                 4           2             7    6     1      -0.3228693586E-02       7    6    1        -0.1793074863E+00      0.1975513528E+00
          0                 5           2             7    6     1      -0.5713422010E-03       7    6    1        -0.3170416943E-01      0.4847350853E-01
          0                 6           2             8    3     1       0.1331709850E-03       7    6    1        -0.5612525839E-02      0.1733850495E-01
          0                 7           1             8    3     1       0.5978489344E-04       8    3    1         0.1554100568E-02      0.7412770831E-02
          0                 8           1             8    3     1       0.2683887482E-04       8    3    1         0.6976848903E-03      0.3294366539E-02
          0                 9           1             8    3     1       0.1204836806E-04       8    3    1         0.3132063274E-03      0.1473626698E-02
          0                10           1             8    3     1       0.5408580531E-05       8    3    1         0.1406024275E-03      0.6598851767E-03

    ------------------------------------------------
       NWT REQUIRED           10 OUTER ITERATIONS 
       AND A TOTAL OF         16 INNER ITERATIONS.
    ------------------------------------------------

 NO OUTPUT CONTROL FOR STRESS PERIOD    5   TIME STEP   23
 
 SOLVING FOR HEAD 
                                                   Max.-Head-Change                         Max.-Flux-Residual
  Residual-Control   Outer-Iter.   Inner-Iter.     Column Row Layer    Maximum-Head-Change  Column Row Layer    Maximum-Flux-Residual          L2-NORM 
          0                 1           2             7    6     1      -0.2889824038E+00       7    6    1        -0.1574848374E+02      0.1585854462E+02
          0                 2           2             7    6     1       0.3170336025E+00       7    6    1         0.1745103438E+02      0.1745784165E+02
          0                 3           2             7    6     1      -0.1826804431E-01       7    6    1        -0.1015434674E+01      0.1037524909E+01
          0                 4           2             7    6     1      -0.3228627281E-02       7    6    1        -0.1793039440E+00      0.1974975493E+00
          0                 5           2             7    6     1      -0.5713298519E-03       7    6    1        -0.3170350743E-01      0.4843184070E-01
          0                 6           2             8    3     1       0.1329949038E-03       7    6    1        -0.5612402728E-02      0.1731542932E-01
          0                 7           1             8    3     1       0.5970505324E-04       8    3    1         0.1552041895E-02      0.7402007273E-02
          0                 8           1             8    3     1       0.2680268575E-04       8    3    1         0.6967514999E-03      0.3289530763E-02
          0                 9           1             8    3     1       0.1203196966E-04       8    3    1         0.3127832699E-03      0.1471479159E-02
          0                10           1             8    3     1       0.5401152233E-05       8    3    1         0.1404107386E-03      0.6589405182E-03

    ------------------------------------------------
       NWT REQUIRED           10 OUTER ITERATIONS 
       AND A TOTAL OF         16 INNER ITERATIONS.
    ------------------------------------------------

 NO OUTPUT CONTROL FOR STRESS PERIOD    5   TIME STEP   24
 
 SOLVING FOR HEAD 
                                                   Max.-Head-Change                         Max.-Flux-Residual
  Residual-Control   Outer-Iter.   Inner-Iter.     Column Row Layer    Maximum-Head-Change  Column Row Layer    Maximum-Flux-Residual          L2-NORM 
          0                 1           2             7    6     1      -0.2889828509E+00       7    6    1        -0.1574852935E+02      0.1585830939E+02
          0                 2           2             7    6     1       0.3170327973E+00       7    6    1         0.1745100187E+02      0.1745779351E+02
          0                 3           2             7    6     1      -0.1826765494E-01       7    6    1        -0.1015413864E+01      0.1037456609E+01
          0                 4           2             7    6     1      -0.3228554700E-02       7    6    1        -0.1793000562E+00      0.1974439818E+00
          0                 5           2             7    6     1      -0.5713163786E-03       7    6    1        -0.3170278348E-01      0.4839057904E-01
          0                 6           2             8    3     1       0.1328166666E-03       7    6    1        -0.5612268490E-02      0.1729259417E-01
          0                 7           1             8    3     1       0.5962427488E-04       8    3    1         0.1549958201E-02      0.7391354676E-02
          0                 8           1             8    3     1       0.2676608725E-04       8    3    1         0.6958071979E-03      0.3284744153E-02
          0                 9           1             8    3     1       0.1201539305E-04       8    3    1         0.3123554593E-03      0.1469329466E-02
          0                10           1             8    3     1       0.5393645900E-05       8    3    1         0.1402169781E-03      0.6579684010E-03

    ------------------------------------------------
       NWT REQUIRED           10 OUTER ITERATIONS 
       AND A TOTAL OF         16 INNER ITERATIONS.
    ------------------------------------------------

 NO OUTPUT CONTROL FOR STRESS PERIOD    5   TIME STEP   25
 
 SOLVING FOR HEAD 
                                                   Max.-Head-Change                         Max.-Flux-Residual
  Residual-Control   Outer-Iter.   Inner-Iter.     Column Row Layer    Maximum-Head-Change  Column Row Layer    Maximum-Flux-Residual          L2-NORM 
          0                 1           2             7    6     1      -0.2889830741E+00       7    6    1        -0.1574856247E+02      0.1585809625E+02
          0                 2           2             7    6     1       0.3170319959E+00       7    6    1         0.1745096966E+02      0.1745774619E+02
          0                 3           2             7    6     1      -0.1826723466E-01       7    6    1        -0.1015391346E+01      0.1037387379E+01
          0                 4           2             7    6     1      -0.3228476611E-02       7    6    1        -0.1792958641E+00      0.1973908149E+00
          0                 5           2             7    6     1      -0.5713019222E-03       7    6    1        -0.3170200528E-01      0.4834980611E-01
          0                 6           2             8    3     1       0.1326348937E-03       7    6    1        -0.5612124601E-02      0.1727003646E-01
          0                 7           1             8    3     1       0.5954193720E-04       8    3    1         0.1547833378E-02      0.7380834793E-02
          0                 8           1             8    3     1       0.2672880182E-04       8    3    1         0.6948447713E-03      0.3280016092E-02
          0                 9           1             8    3     1       0.1199851330E-04       8    3    1         0.3119196604E-03      0.1467226933E-02
          0                10           1             8    3     1       0.5386006883E-05       8    3    1         0.1400197033E-03      0.6570258969E-03

    ------------------------------------------------
       NWT REQUIRED           10 OUTER ITERATIONS 
       AND A TOTAL OF         16 INNER ITERATIONS.
    ------------------------------------------------

 NO OUTPUT CONTROL FOR STRESS PERIOD    5   TIME STEP   26
 
 SOLVING FOR HEAD 
                                                   Max.-Head-Change                         Max.-Flux-Residual
  Residual-Control   Outer-Iter.   Inner-Iter.     Column Row Layer    Maximum-Head-Change  Column Row Layer    Maximum-Flux-Residual          L2-NORM 
          0                 1           2             7    6     1      -0.2889830918E+00       7    6    1        -0.1574858423E+02      0.1585790155E+02
          0                 2           2             7    6     1       0.3170311992E+00       7    6    1         0.1745093776E+02      0.1745769963E+02
          0                 3           2             7    6     1      -0.1826678631E-01       7    6    1        -0.1015367280E+01      0.1037317288E+01
          0                 4           2             7    6     1      -0.3228393499E-02       7    6    1        -0.1792913952E+00      0.1973379901E+00
          0                 5           2             7    6     1      -0.5712865669E-03       7    6    1        -0.3170117754E-01      0.4830945337E-01
          0                 6           2             8    3     1       0.1324526341E-03       7    6    1        -0.5611971867E-02      0.1724771686E-01
          0                 7           1             8    3     1       0.5945940380E-04       8    3    1         0.1545702986E-02      0.7370417604E-02
          0                 8           1             8    3     1       0.2669143836E-04       8    3    1         0.6938801086E-03      0.3275340913E-02
          0                 9           1             8    3     1       0.1198160355E-04       8    3    1         0.3114829741E-03      0.1465135439E-02
          0                10           1             8    3     1       0.5378355361E-05       8    3    1         0.1398220725E-03      0.6560934070E-03

    ------------------------------------------------
       NWT REQUIRED           10 OUTER ITERATIONS 
       AND A TOTAL OF         16 INNER ITERATIONS.
    ------------------------------------------------

 NO OUTPUT CONTROL FOR STRESS PERIOD    5   TIME STEP   27
 
 SOLVING FOR HEAD 
                                                   Max.-Head-Change                         Max.-Flux-Residual
  Residual-Control   Outer-Iter.   Inner-Iter.     Column Row Layer    Maximum-Head-Change  Column Row Layer    Maximum-Flux-Residual          L2-NORM 
          0                 1           2             7    6     1      -0.2889829187E+00       7    6    1        -0.1574859553E+02      0.1585765503E+02
          0                 2           2             7    6     1       0.3170304075E+00       7    6    1         0.1745090619E+02      0.1745765142E+02
          0                 3           2             7    6     1      -0.1826631209E-01       7    6    1        -0.1015341791E+01      0.1037245058E+01
          0                 4           2             7    6     1      -0.3228305751E-02       7    6    1        -0.1792866709E+00      0.1972853261E+00
          0                 5           2             7    6     1      -0.5712703823E-03       7    6    1        -0.3170030411E-01      0.4826954142E-01
          0                 6           2             8    3     1       0.1322670718E-03       7    6    1        -0.5611810922E-02      0.1722566245E-01
          0                 7           1             8    3     1       0.5937541764E-04       8    3    1         0.1543534198E-02      0.7360131984E-02
          0                 8           1             8    3     1       0.2665343536E-04       8    3    1         0.6928985445E-03      0.3270714139E-02
          0                 9           1             8    3     1       0.1196441216E-04       8    3    1         0.3110388524E-03      0.1463061961E-02
          0                10           1             8    3     1       0.5370580785E-05       8    3    1         0.1396211736E-03      0.6551717627E-03

    ------------------------------------------------
       NWT REQUIRED           10 OUTER ITERATIONS 
       AND A TOTAL OF         16 INNER ITERATIONS.
    ------------------------------------------------

 NO OUTPUT CONTROL FOR STRESS PERIOD    5   TIME STEP   28
 
 SOLVING FOR HEAD 
                                                   Max.-Head-Change                         Max.-Flux-Residual
  Residual-Control   Outer-Iter.   Inner-Iter.     Column Row Layer    Maximum-Head-Change  Column Row Layer    Maximum-Flux-Residual          L2-NORM 
          0                 1           2             7    6     1      -0.2889825693E+00       7    6    1        -0.1574859709E+02      0.1585748426E+02
          0                 2           2             7    6     1       0.3170296209E+00       7    6    1         0.1745087495E+02      0.1745760620E+02
          0                 3           2             7    6     1      -0.1826581467E-01       7    6    1        -0.1015315023E+01      0.1037173529E+01
          0                 4           2             7    6     1      -0.3228213849E-02       7    6    1        -0.1792817177E+00      0.1972331950E+00
          0                 5           2             7    6     1      -0.5712534525E-03       7    6    1        -0.3169938963E-01      0.4823000630E-01
          0                 6           2             8    3     1       0.1320783056E-03       7    6    1        -0.5611642629E-02      0.1720380148E-01
          0                 7           1             8    3     1       0.5929001973E-04       8    3    1         0.1541328149E-02      0.7349927207E-02
          0                 8           1             8    3     1       0.2661481134E-04       8    3    1         0.6919005822E-03      0.3266132446E-02
          0                 9           1             8    3     1       0.1194694741E-04       8    3    1         0.3105875099E-03      0.1461021881E-02
          0                10           1             8    3     1       0.5362685029E-05       8    3    1         0.1394170936E-03      0.6542785140E-03

    ------------------------------------------------
       NWT REQUIRED           10 OUTER ITERATIONS 
       AND A TOTAL OF         16 INNER ITERATIONS.
    ------------------------------------------------

 NO OUTPUT CONTROL FOR STRESS PERIOD    5   TIME STEP   29
 
 SOLVING FOR HEAD 
                                                   Max.-Head-Change                         Max.-Flux-Residual
  Residual-Control   Outer-Iter.   Inner-Iter.     Column Row Layer    Maximum-Head-Change  Column Row Layer    Maximum-Flux-Residual          L2-NORM 
          0                 1           2             7    6     1      -0.2889712831E+00       7    6    1        -0.1574858969E+02      0.1588167314E+02
          0                 2           2             7    6     1       0.3170324707E+00       7    6    1         0.1745093058E+02      0.1745795762E+02
          0                 3           2             7    6     1      -0.1826317781E-01       7    6    1        -0.1015188244E+01      0.1037193224E+01
          0                 4           2             7    6     1      -0.3227651050E-02       7    6    1        -0.1792538747E+00      0.1971942607E+00
          0                 5           2             7    6     1      -0.5711371955E-03       7    6    1        -0.3169352498E-01      0.4819943805E-01
          0                 6           2             8    3     1       0.1318879829E-03       7    6    1        -0.5610447191E-02      0.1718739175E-01
          0                 7           1             8    3     1       0.5920395302E-04       8    3    1         0.1539104081E-02      0.7342331155E-02
          0                 8           1             8    3     1       0.2657590044E-04       8    3    1         0.6908948729E-03      0.3262713080E-02
          0                 9           1             8    3     1       0.1192935898E-04       8    3    1         0.3101328348E-03      0.1459487036E-02
          0                10           1             8    3     1       0.5354737375E-05       8    3    1         0.1392115908E-03      0.6535751144E-03

    ------------------------------------------------
       NWT REQUIRED           10 OUTER ITERATIONS 
       AND A TOTAL OF         16 INNER ITERATIONS.
    ------------------------------------------------

 NO OUTPUT CONTROL FOR STRESS PERIOD    5   TIME STEP   30



 STREAM LISTING     PERIOD      5   STEP       30

 LAYER ROW COL. STREAM  RCH.  FLOW INTO     FLOW TO   FLOW OUT OF   OVRLND.     DIRECT     STREAM       STREAM     STREAM     STREAM   STREAMBED  STREAMBED
                SEG.NO.  NO.  STRM. RCH.    AQUIFER    STRM. RCH.    RUNOFF     PRECIP       ET          HEAD       DEPTH      WIDTH   CONDCTNC.   GRADIENT

   1    1    1     1     1    6.0420E+01  3.7345E-09   6.0420E+01  0.000E+00  0.000E+00  0.000E+00  1.09458E+03  1.531E+00  1.832E+01  8.243E-10  1.510E+00
   1    2    2     1     2    6.0420E+01  5.8035E-09   6.0420E+01  0.000E+00  0.000E+00  0.000E+00  1.08959E+03  1.529E+00  1.830E+01  1.281E-09  1.510E+00
   1    3    3     1     3    6.0420E+01  4.9764E-09   6.0420E+01  0.000E+00  0.000E+00  0.000E+00  1.08395E+03  1.530E+00  1.831E+01  1.099E-09  1.510E+00
   1    3    4     1     4    6.0420E+01  4.6040E-09   6.0420E+01  0.000E+00  0.000E+00  0.000E+00  1.07894E+03  1.530E+00  1.831E+01  1.016E-09  1.510E+00
   1    4    5     2     1    5.8420E+01  3.9042E-01   5.8030E+01  0.000E+00  0.000E+00  0.000E+00  1.07394E+03  2.005E+00  1.200E+01  7.800E-02  1.668E+00
   1    5    6     2     2    5.8030E+01  2.9990E-01   5.7730E+01  0.000E+00  0.000E+00  0.000E+00  1.06851E+03  1.998E+00  1.200E+01  6.000E-02  1.666E+00
   1    6    6     2     3    5.7730E+01  2.9952E-01   5.7430E+01  0.000E+00  0.000E+00  0.000E+00  1.06378E+03  1.992E+00  1.200E+01  6.000E-02  1.664E+00
   1    7    6     2     4    5.7430E+01  2.9915E-01   5.7131E+01  0.000E+00  0.000E+00  0.000E+00  1.05906E+03  1.986E+00  1.200E+01  6.000E-02  1.662E+00
   1    8    6     2     5    5.7131E+01  2.9878E-01   5.6832E+01  0.000E+00  0.000E+00  0.000E+00  1.05434E+03  1.980E+00  1.200E+01  6.000E-02  1.660E+00
   1    3    5     3     1    2.0000E+00  2.8252E-01   1.7175E+00  0.000E+00  0.000E+00  0.000E+00  1.07555E+03  1.909E+00  9.636E+00  7.227E-02  1.955E+00
   1    3    6     3     2    1.7175E+00  2.4905E-01   1.4684E+00  0.000E+00  0.000E+00  0.000E+00  1.07264E+03  1.727E+00  8.909E+00  6.682E-02  1.864E+00
   1    3    7     3     3    1.4684E+00  1.9718E-01   1.2712E+00  0.000E+00  0.000E+00  0.000E+00  1.06987E+03  1.555E+00  8.218E+00  5.547E-02  1.777E+00
   1    4    8     3     4    1.2712E+00  2.2567E-01   1.0456E+00  0.000E+00  0.000E+00  0.000E+00  1.06682E+03  1.364E+00  7.455E+00  6.709E-02  1.682E+00
   1    5    8     3     5    1.0456E+00  1.5790E-01   8.8768E-01  0.000E+00  0.000E+00  0.000E+00  1.06362E+03  1.164E+00  6.655E+00  4.991E-02  1.582E+00
   1    6    8     3     6    8.8768E-01  5.5980E-02   8.3170E-01  0.000E+00  0.000E+00  0.000E+00  1.06158E+03  1.036E+00  6.145E+00  1.844E-02  1.518E+00
   1    5   10     4     1    1.0000E+01  9.0919E-02   9.9091E+00  0.000E+00  0.000E+00  0.000E+00  1.07836E+03  6.368E-01  1.000E+01  2.500E-02  1.212E+00
   1    5    9     4     2    9.9091E+00  1.8158E-01   9.7275E+00  0.000E+00  0.000E+00  0.000E+00  1.07154E+03  6.315E-01  1.000E+01  5.000E-02  1.211E+00
   1    6    8     4     3    9.7275E+00  1.2689E-01   9.6006E+00  0.000E+00  0.000E+00  0.000E+00  1.06381E+03  6.256E-01  1.000E+01  3.500E-02  1.209E+00
   1    6    8     5     1    1.0432E+01  2.2686E-09   1.0432E+01  0.000E+00  0.000E+00  0.000E+00  1.05868E+03  6.790E-01  1.542E+01  6.166E-10  1.226E+00
   1    7    7     5     2    1.0432E+01  2.8306E-09   1.0432E+01  0.000E+00  0.000E+00  0.000E+00  1.05418E+03  6.784E-01  1.539E+01  7.695E-10  1.226E+00
   1    8    7     5     3    1.0432E+01  1.9868E-09   1.0432E+01  0.000E+00  0.000E+00  0.000E+00  1.04993E+03  6.794E-01  1.543E+01  5.400E-10  1.226E+00
   1    8    6     5     4    1.0432E+01  1.4217E-09   1.0432E+01  0.000E+00  0.000E+00  0.000E+00  1.04693E+03  6.800E-01  1.545E+01  3.863E-10  1.227E+00
   1    9    6     6     1    6.7265E+01  3.1249E-01   6.6952E+01  0.000E+00  0.000E+00  0.000E+00  1.04494E+03  2.208E+00  1.200E+01  6.000E-02  1.736E+00
   1   10    7     6     2    6.6952E+01  3.1212E-01   6.6640E+01  0.000E+00  0.000E+00  0.000E+00  1.04038E+03  2.202E+00  1.200E+01  6.000E-02  1.734E+00
   1   11    7     6     3    6.6640E+01  3.1175E-01   6.6328E+01  0.000E+00  0.000E+00  0.000E+00  1.03583E+03  2.196E+00  1.200E+01  6.000E-02  1.732E+00
   1   12    7     6     4    6.6328E+01  3.1138E-01   6.6017E+01  0.000E+00  0.000E+00  0.000E+00  1.03128E+03  2.190E+00  1.200E+01  6.000E-02  1.730E+00
   1   13    7     6     5    6.6017E+01  1.2445E-01   6.5892E+01  0.000E+00  0.000E+00  0.000E+00  1.02809E+03  2.185E+00  1.200E+01  2.400E-02  1.728E+00
   1   14    9     7     1    1.5000E+02  2.9539E-08   1.5000E+02  0.000E+00  0.000E+00  0.000E+00  1.03986E+03  2.283E+00  5.528E+01  5.591E-09  1.761E+00
   1   13    8     7     2    1.5000E+02  3.2486E-14   1.5000E+02  0.000E+00  0.000E+00  0.000E+00  1.03478E+03  2.283E+00  5.527E+01  6.150E-15  1.761E+00
   1   13    7     7     3    1.5000E+02  2.9539E-08   1.5000E+02  0.000E+00  0.000E+00  0.000E+00  1.02970E+03  2.283E+00  5.528E+01  5.591E-09  1.761E+00
   1   13    6     8     1    2.1589E+02  2.9603E-15   2.1589E+02  0.000E+00  0.000E+00  0.000E+00  1.02510E+03  3.221E+00  4.670E+01  4.759E-16  2.074E+00
   1   13    5     8     2    2.1589E+02  2.9603E-15   2.1589E+02  0.000E+00  0.000E+00  0.000E+00  1.01885E+03  3.221E+00  4.670E+01  4.759E-16  2.074E+00
   1   13    4     8     3    2.1589E+02  2.5485E-31   2.1589E+02  0.000E+00  0.000E+00  0.000E+00  1.01260E+03  3.229E+00  4.682E+01  4.771E-32  1.781E+00
   1   13    3     8     4    2.1589E+02  6.9063E-09   2.1589E+02  0.000E+00  0.000E+00  0.000E+00  1.00635E+03  3.227E+00  4.679E+01  4.768E-09  4.828E-01
   1   13    2     8     5    2.1589E+02 -5.5074E-01   2.1644E+02  0.000E+00  0.000E+00  0.000E+00  1.00011E+03  3.231E+00  4.684E+01  4.773E+00 -3.846E-02
   1   13    1     8     6    2.1644E+02 -1.4402E+00   2.1788E+02  0.000E+00  0.000E+00  0.000E+00  9.95111E+02  3.236E+00  4.692E+01  2.869E+00 -1.673E-01
   1    6    8     9     1    0.0000E+00  0.0000E+00   0.0000E+00  0.000E+00  0.000E+00  0.000E+00  1.07850E+03  0.000E+00  4.000E+00  0.000E+00  1.000E+00





UNSATURATED ZONE PACKAGE VOLUMETRIC BUDGET FOR  TIME STEP    30 STRESS PERIOD    5
  ------------------------------------------------------------------------------



     CUMULATIVE VOLUMES      L**3       RATES FOR THIS TIME STEP      L**3/T
     ------------------                 ------------------------

           IN:                                      IN:
           ---                                      ---
        INFILTRATION =    11136150.0000          INFILTRATION =           0.8475

          OUT:                                     OUT:
          ----                                     ----
              UZF ET =    39804248.5402                UZF ET =          14.2895
        UZF RECHARGE =   303057432.6205          UZF RECHARGE =          27.6587

            IN - OUT =  -331725531.1607              IN - OUT =         -41.1006

          STORAGE:                                 STORAGE:
          --------                                 --------
      STORAGE CHANGE =  -331724733.2914        STORAGE CHANGE =         -41.1006

 PERCENT DISCREPANCY IS DIFFERENCE BETWEEN IN-OUT MINUS CHANGE IN STORAGE
 DIVIDED BY THE AVERAGE OF IN AND OUT TIMES 100

 PERCENT DISCREPANCY =          -0.00     PERCENT DISCREPANCY =          -0.00






1
  VOLUMETRIC BUDGET FOR ENTIRE MODEL AT END OF TIME STEP   30, STRESS PERIOD   5
  ------------------------------------------------------------------------------

     CUMULATIVE VOLUMES      L**3       RATES FOR THIS TIME STEP      L**3/T
     ------------------                 ------------------------

           IN:                                      IN:
           ---                                      ---
             STORAGE =     1906662.7500               STORAGE =           0.0000
       CONSTANT HEAD =           0.0000         CONSTANT HEAD =           0.0000
               WELLS =           0.0000                 WELLS =           0.0000
     HEAD DEP BOUNDS =    13964409.0000       HEAD DEP BOUNDS =           1.0521
      STREAM LEAKAGE =    48546640.0000        STREAM LEAKAGE =           4.5277
        UZF RECHARGE =   303057440.0000          UZF RECHARGE =          27.6587
               GW ET =           0.0000                 GW ET =           0.0000
     SURFACE LEAKAGE =           0.0000       SURFACE LEAKAGE =           0.0000

            TOTAL IN =   367475136.0000              TOTAL IN =          33.2384

          OUT:                                     OUT:
          ----                                     ----
             STORAGE =   326008192.0000               STORAGE =          30.7454
       CONSTANT HEAD =           0.0000         CONSTANT HEAD =           0.0000
               WELLS =           0.0000                 WELLS =           0.0000
     HEAD DEP BOUNDS =     3778459.7500       HEAD DEP BOUNDS =           0.2893
      STREAM LEAKAGE =    35103464.0000        STREAM LEAKAGE =           1.9910
        UZF RECHARGE =           0.0000          UZF RECHARGE =           0.0000
               GW ET =     2559111.0000                 GW ET =           0.2105
     SURFACE LEAKAGE =           0.0000       SURFACE LEAKAGE =           0.0000

           TOTAL OUT =   367449216.0000             TOTAL OUT =          33.2362

            IN - OUT =       25920.0000              IN - OUT =       2.2011E-03

 PERCENT DISCREPANCY =           0.01     PERCENT DISCREPANCY =           0.01






         TIME SUMMARY AT END OF TIME STEP   30 IN STRESS PERIOD    5
                    SECONDS     MINUTES      HOURS       DAYS        YEARS
                    -----------------------------------------------------------
   TIME STEP LENGTH  87600.      1460.0      24.333      1.0139     2.77588E-03
 STRESS PERIOD TIME 2.62800E+06  43800.      730.00      30.417     8.32763E-02
         TOTAL TIME 1.31400E+07 2.19000E+05  3650.0      152.08     0.41638    
1
1
                            STRESS PERIOD NO.    6, LENGTH =   2628000.    
                            -----------------------------------------------

                              NUMBER OF TIME STEPS =    30

                               MULTIPLIER FOR DELT =     1.000

                            INITIAL TIME STEP SIZE =   87600.00    

 WELL NO.  LAYER   ROW   COL   STRESS RATE         
 --------------------------------------------------
      1      1      6      4       0.000    
      2      1      6      7       0.000    
      3      1      7      4       0.000    
      4      1      7      5       0.000    
      5      1      8      4       0.000    
      6      1      8      5       0.000    
      7      1      9      4       0.000    
      8      1      9      5       0.000    
      9      1     10      4       0.000    
     10      1     10      5       0.000    

     10 WELLS

 REUSING NON-PARAMETER GHB CELLS FROM LAST STRESS PERIOD

      2 GHB CELLS

 REUSING STREAM SEGMENT DATA FROM LAST STRESS PERIOD



            AREAL INFILTRATION RATE
 READING ON UNIT   19 WITH FORMAT: (10F4.0)            

            1           2           3           4           5           6           7           8           9          10
 ........................................................................................................................
   1   1.0000E-10  2.0000E-10   0.000       0.000       0.000       0.000       0.000       0.000       0.000       0.000    
   2   2.0000E-10  1.0000E-10  2.0000E-10   0.000       0.000      8.0000E-10  8.0000E-10  5.0000E-10   0.000       0.000    
   3    0.000      5.0000E-10  1.0000E-10  1.0000E-10  8.0000E-10  8.0000E-10  5.0000E-10  5.0000E-10   0.000       0.000    
   4   8.0000E-10  5.0000E-10  1.0000E-10  1.0000E-10  1.0000E-10  1.0000E-10  1.0000E-10  1.0000E-10  2.0000E-10   0.000    
   5   8.0000E-10  5.0000E-10  1.0000E-10  1.0000E-10  1.0000E-10  1.0000E-10  1.0000E-10  1.0000E-10  1.0000E-10  1.0000E-10
   6   8.0000E-10  5.0000E-10  5.0000E-10  2.0000E-10  2.0000E-10  1.0000E-10  1.0000E-10  1.0000E-10  1.0000E-10  5.0000E-10
   7   8.0000E-10  5.0000E-10  5.0000E-10  2.0000E-10  2.0000E-10  1.0000E-10  1.0000E-10  2.0000E-10  2.0000E-10   0.000    
   8    0.000      5.0000E-10  5.0000E-10  2.0000E-10  2.0000E-10  1.0000E-10  1.0000E-10  2.0000E-10  5.0000E-10   0.000    
   9    0.000      5.0000E-10  5.0000E-10  2.0000E-10  2.0000E-10  1.0000E-10  1.0000E-10  2.0000E-10  5.0000E-10   0.000    
  10    0.000      5.0000E-10  5.0000E-10  2.0000E-10  2.0000E-10  1.0000E-10  1.0000E-10  2.0000E-10  5.0000E-10  8.0000E-10
  11    0.000      1.0000E-10  1.0000E-10  1.0000E-10  1.0000E-10  1.0000E-10  1.0000E-10  2.0000E-10  5.0000E-10   0.000    
  12   1.0000E-10  1.0000E-10  1.0000E-10  1.0000E-10  1.0000E-10  1.0000E-10  1.0000E-10  1.0000E-10  2.0000E-10   0.000    
  13   1.0000E-10  1.0000E-10  2.0000E-10  2.0000E-10  2.0000E-10  2.0000E-10  2.0000E-10  1.0000E-10  1.0000E-10   0.000    
  14    0.000      2.0000E-10  5.0000E-10  5.0000E-10  5.0000E-10  5.0000E-10  5.0000E-10  2.0000E-10  1.0000E-10   0.000    
  15    0.000       0.000      8.0000E-10  8.0000E-10  8.0000E-10  8.0000E-10   0.000       0.000       0.000       0.000    

                  ET RATE =  1.000000E-08

 USING ET EXTINCTION DEPTH FROM PREVIOUS STRESS PERIOD. CURRENT PERIOD IS:       6

 USING EXTINCTION WATER CONTENT FROM PREVIOUS STRESS PERIOD. CURRENT PERIOD IS:       6
 
 SOLVING FOR HEAD 
                                                   Max.-Head-Change                         Max.-Flux-Residual
  Residual-Control   Outer-Iter.   Inner-Iter.     Column Row Layer    Maximum-Head-Change  Column Row Layer    Maximum-Flux-Residual          L2-NORM 
          0                 1           2             7    6     1      -0.2889472799E+00       7    6    1        -0.1574784133E+02      0.1592601733E+02
          0                 2           2             7    6     1       0.3170354735E+00       7    6    1         0.1745100635E+02      0.1745854088E+02
          0                 3           2             7    6     1      -0.1825891813E-01       7    6    1        -0.1014970883E+01      0.1037164634E+01
          0                 4           2             7    6     1      -0.3226803575E-02       7    6    1        -0.1792101404E+00      0.1971505073E+00
          0                 5           2             7    6     1      -0.5709710043E-03       7    6    1        -0.3168487298E-01      0.4817354253E-01
          0                 6           2             8    3     1       0.1316960553E-03       7    6    1        -0.5608762214E-02      0.1717437663E-01
          0                 7           1             8    3     1       0.5911718312E-04       8    3    1         0.1536861358E-02      0.7336370115E-02
          0                 8           1             8    3     1       0.2653668090E-04       8    3    1         0.6898809873E-03      0.3260034083E-02
          0                 9           1             8    3     1       0.1191163636E-04       8    3    1         0.3096745880E-03      0.1458286150E-02
          0                10           1             8    3     1       0.5346730070E-05       8    3    1         0.1390045201E-03      0.6530371839E-03

    ------------------------------------------------
       NWT REQUIRED           10 OUTER ITERATIONS 
       AND A TOTAL OF         16 INNER ITERATIONS.
    ------------------------------------------------

 NO OUTPUT CONTROL FOR STRESS PERIOD    6   TIME STEP    1
 
 SOLVING FOR HEAD 
                                                   Max.-Head-Change                         Max.-Flux-Residual
  Residual-Control   Outer-Iter.   Inner-Iter.     Column Row Layer    Maximum-Head-Change  Column Row Layer    Maximum-Flux-Residual          L2-NORM 
          0                 1           2             7    6     1      -0.2889214912E+00       7    6    1        -0.1574645148E+02      0.1592214211E+02
          0                 2           2             7    6     1       0.3170355145E+00       7    6    1         0.1745102627E+02      0.1745852969E+02
          0                 3           2             7    6     1      -0.1825507939E-01       7    6    1        -0.1014760426E+01      0.1036934670E+01
          0                 4           2             7    6     1      -0.3226111670E-02       7    6    1        -0.1791721864E+00      0.1970881201E+00
          0                 5           2             7    6     1      -0.5708464047E-03       7    6    1        -0.3167803453E-01      0.4814584599E-01
          0                 6           2             8    3     1       0.1315027517E-03       7    6    1        -0.5607531156E-02      0.1716091283E-01
          0                 7           1             8    3     1       0.5902982408E-04       8    3    1         0.1534602717E-02      0.7330207806E-02
          0                 8           1             8    3     1       0.2649720925E-04       8    3    1         0.6888602861E-03      0.3257264134E-02
          0                 9           1             8    3     1       0.1189380607E-04       8    3    1         0.3092134297E-03      0.1457045074E-02
          0                10           1             8    3     1       0.5338676995E-05       8    3    1         0.1387962081E-03      0.6524814154E-03

    ------------------------------------------------
       NWT REQUIRED           10 OUTER ITERATIONS 
       AND A TOTAL OF         16 INNER ITERATIONS.
    ------------------------------------------------

 NO OUTPUT CONTROL FOR STRESS PERIOD    6   TIME STEP    2
 
 SOLVING FOR HEAD 
                                                   Max.-Head-Change                         Max.-Flux-Residual
  Residual-Control   Outer-Iter.   Inner-Iter.     Column Row Layer    Maximum-Head-Change  Column Row Layer    Maximum-Flux-Residual          L2-NORM 
          0                 1           2             7    6     1      -0.2888972457E+00       7    6    1        -0.1574514528E+02      0.1591860858E+02
          0                 2           2             7    6     1       0.3170355581E+00       7    6    1         0.1745104626E+02      0.1745861614E+02
          0                 3           2             7    6     1      -0.1825149200E-01       7    6    1        -0.1014563827E+01      0.1036770103E+01
          0                 4           2             7    6     1      -0.3225464714E-02       7    6    1        -0.1791367110E+00      0.1970385320E+00
          0                 5           2             7    6     1      -0.5707298399E-03       7    6    1        -0.3167163923E-01      0.4812360134E-01
          0                 6           2             8    3     1       0.1313067090E-03       7    6    1        -0.5606379303E-02      0.1715019756E-01
          0                 7           1             8    3     1       0.5894126526E-04       8    3    1         0.1532312253E-02      0.7325311218E-02
          0                 8           1             8    3     1       0.2645721275E-04       8    3    1         0.6878256502E-03      0.3255060175E-02
          0                 9           1             8    3     1       0.1187574567E-04       8    3    1         0.3087461657E-03      0.1456055685E-02
          0                10           1             8    3     1       0.5330523625E-05       8    3    1         0.1385852245E-03      0.6520376514E-03

    ------------------------------------------------
       NWT REQUIRED           10 OUTER ITERATIONS 
       AND A TOTAL OF         16 INNER ITERATIONS.
    ------------------------------------------------

 NO OUTPUT CONTROL FOR STRESS PERIOD    6   TIME STEP    3
 
 SOLVING FOR HEAD 
                                                   Max.-Head-Change                         Max.-Flux-Residual
  Residual-Control   Outer-Iter.   Inner-Iter.     Column Row Layer    Maximum-Head-Change  Column Row Layer    Maximum-Flux-Residual          L2-NORM 
          0                 1           2             7    6     1      -0.2888743398E+00       7    6    1        -0.1574391184E+02      0.1591745731E+02
          0                 2           2             7    6     1       0.3170355930E+00       7    6    1         0.1745106566E+02      0.1745862357E+02
          0                 3           2             7    6     1      -0.1824811280E-01       7    6    1        -0.1014378700E+01      0.1036477206E+01
          0                 4           2             7    6     1      -0.3224855011E-02       7    6    1        -0.1791032890E+00      0.1969764569E+00
          0                 5           2             7    6     1      -0.5706199386E-03       7    6    1        -0.3166561132E-01      0.4809793114E-01
          0                 6           2             8    3     1       0.1311107949E-03       7    6    1        -0.5605293158E-02      0.1713776615E-01
          0                 7           1             8    3     1       0.5885277523E-04       8    3    1         0.1530023350E-02      0.7319614103E-02
          0                 8           1             8    3     1       0.2641725188E-04       8    3    1         0.6867918404E-03      0.3252496887E-02
          0                 9           1             8    3     1       0.1185770366E-04       8    3    1         0.3082793292E-03      0.1454906175E-02
          0                10           1             8    3     1       0.5322379384E-05       8    3    1         0.1383744562E-03      0.6515227711E-03

    ------------------------------------------------
       NWT REQUIRED           10 OUTER ITERATIONS 
       AND A TOTAL OF         16 INNER ITERATIONS.
    ------------------------------------------------

 NO OUTPUT CONTROL FOR STRESS PERIOD    6   TIME STEP    4
 
 SOLVING FOR HEAD 
                                                   Max.-Head-Change                         Max.-Flux-Residual
  Residual-Control   Outer-Iter.   Inner-Iter.     Column Row Layer    Maximum-Head-Change  Column Row Layer    Maximum-Flux-Residual          L2-NORM 
          0                 1           2             7    6     1      -0.2888528152E+00       7    6    1        -0.1574275326E+02      0.1591298915E+02
          0                 2           2             7    6     1       0.3170356297E+00       7    6    1         0.1745108510E+02      0.1745847335E+02
          0                 3           2             7    6     1      -0.1824495818E-01       7    6    1        -0.1014205954E+01      0.1036329301E+01
          0                 4           2             7    6     1      -0.3224285477E-02       7    6    1        -0.1790720818E+00      0.1969239080E+00
          0                 5           2             7    6     1      -0.5705172193E-03       7    6    1        -0.3165997947E-01      0.4807247764E-01
          0                 6           2             8    3     1       0.1309108864E-03       7    6    1        -0.5604277796E-02      0.1712513271E-01
          0                 7           1             8    3     1       0.5876252741E-04       8    3    1         0.1527687994E-02      0.7313807897E-02
          0                 8           1             8    3     1       0.2637651792E-04       8    3    1         0.6857375922E-03      0.3249883959E-02
          0                 9           1             8    3     1       0.1183932100E-04       8    3    1         0.3078034964E-03      0.1453734510E-02
          0                10           1             8    3     1       0.5314085452E-05       8    3    1         0.1381597324E-03      0.6509972360E-03

    ------------------------------------------------
       NWT REQUIRED           10 OUTER ITERATIONS 
       AND A TOTAL OF         16 INNER ITERATIONS.
    ------------------------------------------------

 OUTPUT CONTROL FOR STRESS PERIOD    6   TIME STEP    5
    PRINT BUDGET
    SAVE BUDGET
 UBUDSV SAVING "         STORAGE" ON UNIT102 AT TIME STEP     5, STRESS PERIOD    6
 UBUDSV SAVING "   CONSTANT HEAD" ON UNIT102 AT TIME STEP     5, STRESS PERIOD    6
 UBUDSV SAVING "FLOW RIGHT FACE " ON UNIT102 AT TIME STEP     5, STRESS PERIOD    6
 UBUDSV SAVING "FLOW FRONT FACE " ON UNIT102 AT TIME STEP     5, STRESS PERIOD    6

  HEAD DEP BOUNDS   PERIOD    6   STEP     5
 BOUNDARY      1   LAYER   1   ROW    13   COL     1   RATE   -0.291211    
 BOUNDARY      2   LAYER   1   ROW    14   COL     9   RATE     1.05133    



 STREAM LISTING     PERIOD      6   STEP        5

 LAYER ROW COL. STREAM  RCH.  FLOW INTO     FLOW TO   FLOW OUT OF   OVRLND.     DIRECT     STREAM       STREAM     STREAM     STREAM   STREAMBED  STREAMBED
                SEG.NO.  NO.  STRM. RCH.    AQUIFER    STRM. RCH.    RUNOFF     PRECIP       ET          HEAD       DEPTH      WIDTH   CONDCTNC.   GRADIENT

   1    1    1     1     1    9.9000E+01  4.7281E-09   9.9000E+01  0.000E+00  0.000E+00  0.000E+00  1.09484E+03  1.796E+00  2.191E+01  9.859E-10  1.599E+00
   1    2    2     1     2    9.9000E+01  7.3508E-09   9.9000E+01  0.000E+00  0.000E+00  0.000E+00  1.08985E+03  1.795E+00  2.190E+01  1.533E-09  1.598E+00
   1    3    3     1     3    9.9000E+01  6.3021E-09   9.9000E+01  0.000E+00  0.000E+00  0.000E+00  1.08421E+03  1.795E+00  2.190E+01  1.314E-09  1.598E+00
   1    3    4     1     4    9.9000E+01  5.8300E-09   9.9000E+01  0.000E+00  0.000E+00  0.000E+00  1.07920E+03  1.795E+00  2.191E+01  1.216E-09  1.598E+00
   1    4    5     2     1    9.7000E+01  4.4618E-01   9.6554E+01  0.000E+00  0.000E+00  0.000E+00  1.07465E+03  2.720E+00  1.200E+01  7.800E-02  1.907E+00
   1    5    6     2     2    9.6554E+01  3.4281E-01   9.6211E+01  0.000E+00  0.000E+00  0.000E+00  1.06922E+03  2.714E+00  1.200E+01  6.000E-02  1.905E+00
   1    6    6     2     3    9.6211E+01  3.4247E-01   9.5869E+01  0.000E+00  0.000E+00  0.000E+00  1.06450E+03  2.708E+00  1.200E+01  6.000E-02  1.903E+00
   1    7    6     2     4    9.5869E+01  3.4212E-01   9.5526E+01  0.000E+00  0.000E+00  0.000E+00  1.05978E+03  2.702E+00  1.200E+01  6.000E-02  1.901E+00
   1    8    6     2     5    9.5526E+01  3.4177E-01   9.5185E+01  0.000E+00  0.000E+00  0.000E+00  1.05505E+03  2.696E+00  1.200E+01  6.000E-02  1.899E+00
   1    3    5     3     1    2.0000E+00  2.8252E-01   1.7175E+00  0.000E+00  0.000E+00  0.000E+00  1.07555E+03  1.909E+00  9.636E+00  7.227E-02  1.955E+00
   1    3    6     3     2    1.7175E+00  2.4905E-01   1.4684E+00  0.000E+00  0.000E+00  0.000E+00  1.07264E+03  1.727E+00  8.909E+00  6.682E-02  1.864E+00
   1    3    7     3     3    1.4684E+00  1.9718E-01   1.2712E+00  0.000E+00  0.000E+00  0.000E+00  1.06987E+03  1.555E+00  8.218E+00  5.547E-02  1.777E+00
   1    4    8     3     4    1.2712E+00  2.2567E-01   1.0456E+00  0.000E+00  0.000E+00  0.000E+00  1.06682E+03  1.364E+00  7.455E+00  6.709E-02  1.682E+00
   1    5    8     3     5    1.0456E+00  1.5790E-01   8.8768E-01  0.000E+00  0.000E+00  0.000E+00  1.06362E+03  1.164E+00  6.655E+00  4.991E-02  1.582E+00
   1    6    8     3     6    8.8768E-01  5.5980E-02   8.3170E-01  0.000E+00  0.000E+00  0.000E+00  1.06158E+03  1.036E+00  6.145E+00  1.844E-02  1.518E+00
   1    5   10     4     1    1.0000E+01  9.0919E-02   9.9091E+00  0.000E+00  0.000E+00  0.000E+00  1.07836E+03  6.368E-01  1.000E+01  2.500E-02  1.212E+00
   1    5    9     4     2    9.9091E+00  1.8158E-01   9.7275E+00  0.000E+00  0.000E+00  0.000E+00  1.07154E+03  6.315E-01  1.000E+01  5.000E-02  1.211E+00
   1    6    8     4     3    9.7275E+00  1.2689E-01   9.6006E+00  0.000E+00  0.000E+00  0.000E+00  1.06381E+03  6.256E-01  1.000E+01  3.500E-02  1.209E+00
   1    6    8     5     1    1.0432E+01  2.2686E-09   1.0432E+01  0.000E+00  0.000E+00  0.000E+00  1.05868E+03  6.790E-01  1.542E+01  6.166E-10  1.226E+00
   1    7    7     5     2    1.0432E+01  2.8306E-09   1.0432E+01  0.000E+00  0.000E+00  0.000E+00  1.05418E+03  6.784E-01  1.539E+01  7.695E-10  1.226E+00
   1    8    7     5     3    1.0432E+01  1.9868E-09   1.0432E+01  0.000E+00  0.000E+00  0.000E+00  1.04993E+03  6.794E-01  1.543E+01  5.400E-10  1.226E+00
   1    8    6     5     4    1.0432E+01  1.4217E-09   1.0432E+01  0.000E+00  0.000E+00  0.000E+00  1.04693E+03  6.800E-01  1.545E+01  3.863E-10  1.227E+00
   1    9    6     6     1    1.0562E+02  3.5375E-01   1.0526E+02  0.000E+00  0.000E+00  0.000E+00  1.04562E+03  2.896E+00  1.200E+01  6.000E-02  1.965E+00
   1   10    7     6     2    1.0526E+02  3.5340E-01   1.0491E+02  0.000E+00  0.000E+00  0.000E+00  1.04107E+03  2.890E+00  1.200E+01  6.000E-02  1.963E+00
   1   11    7     6     3    1.0491E+02  3.5305E-01   1.0456E+02  0.000E+00  0.000E+00  0.000E+00  1.03652E+03  2.884E+00  1.200E+01  6.000E-02  1.961E+00
   1   12    7     6     4    1.0456E+02  3.5270E-01   1.0420E+02  0.000E+00  0.000E+00  0.000E+00  1.03197E+03  2.878E+00  1.200E+01  6.000E-02  1.959E+00
   1   13    7     6     5    1.0420E+02  1.4098E-01   1.0406E+02  0.000E+00  0.000E+00  0.000E+00  1.02878E+03  2.874E+00  1.200E+01  2.400E-02  1.958E+00
   1   14    9     7     1    1.5000E+02  2.9539E-08   1.5000E+02  0.000E+00  0.000E+00  0.000E+00  1.03986E+03  2.283E+00  5.528E+01  5.591E-09  1.761E+00
   1   13    8     7     2    1.5000E+02  3.2486E-14   1.5000E+02  0.000E+00  0.000E+00  0.000E+00  1.03478E+03  2.283E+00  5.527E+01  6.150E-15  1.761E+00
   1   13    7     7     3    1.5000E+02  2.9539E-08   1.5000E+02  0.000E+00  0.000E+00  0.000E+00  1.02970E+03  2.283E+00  5.528E+01  5.591E-09  1.761E+00
   1   13    6     8     1    2.5406E+02  3.2501E-08   2.5406E+02  0.000E+00  0.000E+00  0.000E+00  1.02530E+03  3.424E+00  4.965E+01  5.059E-09  2.141E+00
   1   13    5     8     2    2.5406E+02  3.2501E-08   2.5406E+02  0.000E+00  0.000E+00  0.000E+00  1.01905E+03  3.424E+00  4.965E+01  5.059E-09  2.141E+00
   1   13    4     8     3    2.5406E+02  2.7937E-08   2.5406E+02  0.000E+00  0.000E+00  0.000E+00  1.01280E+03  3.425E+00  4.967E+01  5.061E-09  1.840E+00
   1   13    3     8     4    2.5406E+02  8.3380E-10   2.5406E+02  0.000E+00  0.000E+00  0.000E+00  1.00656E+03  3.430E+00  4.974E+01  5.068E-10  5.484E-01
   1   13    2     8     5    2.5406E+02 -1.1962E-01   2.5418E+02  0.000E+00  0.000E+00  0.000E+00  1.00031E+03  3.433E+00  4.977E+01  5.072E+00 -7.862E-03
   1   13    1     8     6    2.5418E+02 -1.0748E+00   2.5526E+02  0.000E+00  0.000E+00  0.000E+00  9.95311E+02  3.436E+00  4.982E+01  3.046E+00 -1.176E-01
   1    6    8     9     1    0.0000E+00  0.0000E+00   0.0000E+00  0.000E+00  0.000E+00  0.000E+00  1.07850E+03  0.000E+00  4.000E+00  0.000E+00  1.000E+00



 UBDSV3 SAVING "     NETRECHARGE" ON UNIT 100 AT TIME STEP     5, STRESS PERIOD   6
 UBDSV3 SAVING "    NETDISCHARGE" ON UNIT 101 AT TIME STEP     5, STRESS PERIOD   6
 UBDSV3 SAVING "           GW ET" ON UNIT  61 AT TIME STEP     5, STRESS PERIOD   6
 UBDSV3 SAVING "    UZF RECHARGE" ON UNIT  61 AT TIME STEP     5, STRESS PERIOD   6
 UBDSV3 SAVING " SURFACE LEAKAGE" ON UNIT  61 AT TIME STEP     5, STRESS PERIOD   6
 UBDSV3 SAVING "       HORT+DUNN" ON UNIT  61 AT TIME STEP     5, STRESS PERIOD   6
 UBDSV3 SAVING "  STORAGE CHANGE" ON UNIT  61 AT TIME STEP     5, STRESS PERIOD   6


UNSATURATED ZONE PACKAGE VOLUMETRIC BUDGET FOR  TIME STEP     5 STRESS PERIOD    6
  ------------------------------------------------------------------------------



     CUMULATIVE VOLUMES      L**3       RATES FOR THIS TIME STEP      L**3/T
     ------------------                 ------------------------

           IN:                                      IN:
           ---                                      ---
        INFILTRATION =    11507355.0000          INFILTRATION =           0.8475

          OUT:                                     OUT:
          ----                                     ----
              UZF ET =    52321656.0448                UZF ET =          28.5769
        UZF RECHARGE =   315293932.5541          UZF RECHARGE =          28.0328

            IN - OUT =  -356108233.5989              IN - OUT =         -55.7622

          STORAGE:                                 STORAGE:
          --------                                 --------
      STORAGE CHANGE =  -356107099.9164        STORAGE CHANGE =         -55.7611

 PERCENT DISCREPANCY IS DIFFERENCE BETWEEN IN-OUT MINUS CHANGE IN STORAGE
 DIVIDED BY THE AVERAGE OF IN AND OUT TIMES 100

 PERCENT DISCREPANCY =          -0.00     PERCENT DISCREPANCY =          -0.00






1
  VOLUMETRIC BUDGET FOR ENTIRE MODEL AT END OF TIME STEP    5, STRESS PERIOD   6
  ------------------------------------------------------------------------------

     CUMULATIVE VOLUMES      L**3       RATES FOR THIS TIME STEP      L**3/T
     ------------------                 ------------------------

           IN:                                      IN:
           ---                                      ---
             STORAGE =     1906662.7500               STORAGE =           0.0000
       CONSTANT HEAD =           0.0000         CONSTANT HEAD =           0.0000
               WELLS =           0.0000                 WELLS =           0.0000
     HEAD DEP BOUNDS =    14425025.0000       HEAD DEP BOUNDS =           1.0513
      STREAM LEAKAGE =    50709020.0000        STREAM LEAKAGE =           4.9369
        UZF RECHARGE =   315293920.0000          UZF RECHARGE =          28.0328
               GW ET =           0.0000                 GW ET =           0.0000
     SURFACE LEAKAGE =           0.0000       SURFACE LEAKAGE =           0.0000

            TOTAL IN =   382334624.0000              TOTAL IN =          34.0211

          OUT:                                     OUT:
          ----                                     ----
             STORAGE =   340097632.0000               STORAGE =          32.1102
       CONSTANT HEAD =           0.0000         CONSTANT HEAD =           0.0000
               WELLS =           0.0000                 WELLS =           0.0000
     HEAD DEP BOUNDS =     3905689.2500       HEAD DEP BOUNDS =           0.2912
      STREAM LEAKAGE =    35560748.0000        STREAM LEAKAGE =           1.1944
        UZF RECHARGE =           0.0000          UZF RECHARGE =           0.0000
               GW ET =     2743703.5000                 GW ET =           0.4231
     SURFACE LEAKAGE =           0.0000       SURFACE LEAKAGE =           0.0000

           TOTAL OUT =   382307776.0000             TOTAL OUT =          34.0189

            IN - OUT =       26848.0000              IN - OUT =       2.1896E-03

 PERCENT DISCREPANCY =           0.01     PERCENT DISCREPANCY =           0.01






         TIME SUMMARY AT END OF TIME STEP    5 IN STRESS PERIOD    6
                    SECONDS     MINUTES      HOURS       DAYS        YEARS
                    -----------------------------------------------------------
   TIME STEP LENGTH  87600.      1460.0      24.333      1.0139     2.77588E-03
 STRESS PERIOD TIME 4.38000E+05  7300.0      121.67      5.0694     1.38794E-02
         TOTAL TIME 1.35780E+07 2.26300E+05  3771.7      157.15     0.43026    
1
 
 SOLVING FOR HEAD 
                                                   Max.-Head-Change                         Max.-Flux-Residual
  Residual-Control   Outer-Iter.   Inner-Iter.     Column Row Layer    Maximum-Head-Change  Column Row Layer    Maximum-Flux-Residual          L2-NORM 
          0                 1           2             7    6     1      -0.2888324737E+00       7    6    1        -0.1574165915E+02      0.1590265969E+02
          0                 2           2             7    6     1       0.3170356577E+00       7    6    1         0.1745110393E+02      0.1745840414E+02
          0                 3           2             7    6     1      -0.1824198563E-01       7    6    1        -0.1014043243E+01      0.1036135694E+01
          0                 4           2             7    6     1      -0.3223748510E-02       7    6    1        -0.1790426701E+00      0.1968691761E+00
          0                 5           2             7    6     1      -0.5704203230E-03       7    6    1        -0.3165466872E-01      0.4804619745E-01
          0                 6           2             8    3     1       0.1307113577E-03       7    6    1        -0.5603319844E-02      0.1711199677E-01
          0                 7           1             8    3     1       0.5867246467E-04       8    3    1         0.1525357145E-02      0.7307761727E-02
          0                 8           1             8    3     1       0.2633587337E-04       8    3    1         0.6846855371E-03      0.3247162877E-02
          0                 9           1             8    3     1       0.1182098161E-04       8    3    1         0.3073287253E-03      0.1452514921E-02
          0                10           1             8    3     1       0.5305811904E-05       8    3    1         0.1379455178E-03      0.6504513464E-03

    ------------------------------------------------
       NWT REQUIRED           10 OUTER ITERATIONS 
       AND A TOTAL OF         16 INNER ITERATIONS.
    ------------------------------------------------

 NO OUTPUT CONTROL FOR STRESS PERIOD    6   TIME STEP    6
 
 SOLVING FOR HEAD 
                                                   Max.-Head-Change                         Max.-Flux-Residual
  Residual-Control   Outer-Iter.   Inner-Iter.     Column Row Layer    Maximum-Head-Change  Column Row Layer    Maximum-Flux-Residual          L2-NORM 
          0                 1           2             7    6     1      -0.2888133664E+00       7    6    1        -0.1574063185E+02      0.1589424668E+02
          0                 2           2             7    6     1       0.3170356863E+00       7    6    1         0.1745112275E+02      0.1745835209E+02
          0                 3           2             7    6     1      -0.1823921341E-01       7    6    1        -0.1013891574E+01      0.1035955293E+01
          0                 4           2             7    6     1      -0.3223247388E-02       7    6    1        -0.1790152343E+00      0.1968157867E+00
          0                 5           2             7    6     1      -0.5703298377E-03       7    6    1        -0.3164971147E-01      0.4801959667E-01
          0                 6           2             8    3     1       0.1305094671E-03       7    6    1        -0.5602425124E-02      0.1709855934E-01
          0                 7           1             8    3     1       0.5858137148E-04       8    3    1         0.1522998867E-02      0.7301566510E-02
          0                 8           1             8    3     1       0.2629477850E-04       8    3    1         0.6836215075E-03      0.3244374870E-02
          0                 9           1             8    3     1       0.1180244638E-04       8    3    1         0.3068487382E-03      0.1451265431E-02
          0                10           1             8    3     1       0.5297452692E-05       8    3    1         0.1377290278E-03      0.6498914348E-03

    ------------------------------------------------
       NWT REQUIRED           10 OUTER ITERATIONS 
       AND A TOTAL OF         16 INNER ITERATIONS.
    ------------------------------------------------

 NO OUTPUT CONTROL FOR STRESS PERIOD    6   TIME STEP    7
 
 SOLVING FOR HEAD 
                                                   Max.-Head-Change                         Max.-Flux-Residual
  Residual-Control   Outer-Iter.   Inner-Iter.     Column Row Layer    Maximum-Head-Change  Column Row Layer    Maximum-Flux-Residual          L2-NORM 
          0                 1           2             7    6     1      -0.2887954179E+00       7    6    1        -0.1573966780E+02      0.1588743298E+02
          0                 2           2             7    6     1       0.3170357174E+00       7    6    1         0.1745114158E+02      0.1745831441E+02
          0                 3           2             7    6     1      -0.1823662794E-01       7    6    1        -0.1013750209E+01      0.1035786785E+01
          0                 4           2             7    6     1      -0.3222779624E-02       7    6    1        -0.1789896393E+00      0.1967635135E+00
          0                 5           2             7    6     1      -0.5702453100E-03       7    6    1        -0.3164508297E-01      0.4799263359E-01
          0                 6           2             8    3     1       0.1303066804E-03       7    6    1        -0.5601589097E-02      0.1708481044E-01
          0                 7           1             8    3     1       0.5848989336E-04       8    3    1         0.1520630221E-02      0.7295218093E-02
          0                 8           1             8    3     1       0.2625351956E-04       8    3    1         0.6825530364E-03      0.3241517658E-02
          0                 9           1             8    3     1       0.1178384037E-04       8    3    1         0.3063668431E-03      0.1449984958E-02
          0                10           1             8    3     1       0.5289063968E-05       8    3    1         0.1375117243E-03      0.6493181896E-03

    ------------------------------------------------
       NWT REQUIRED           10 OUTER ITERATIONS 
       AND A TOTAL OF         16 INNER ITERATIONS.
    ------------------------------------------------

 NO OUTPUT CONTROL FOR STRESS PERIOD    6   TIME STEP    8
 
 SOLVING FOR HEAD 
                                                   Max.-Head-Change                         Max.-Flux-Residual
  Residual-Control   Outer-Iter.   Inner-Iter.     Column Row Layer    Maximum-Head-Change  Column Row Layer    Maximum-Flux-Residual          L2-NORM 
          0                 1           2             7    6     1      -0.2887784408E+00       7    6    1        -0.1573875670E+02      0.1588183584E+02
          0                 2           2             7    6     1       0.3170357381E+00       7    6    1         0.1745115973E+02      0.1745828618E+02
          0                 3           2             7    6     1      -0.1823418927E-01       7    6    1        -0.1013616933E+01      0.1035627078E+01
          0                 4           2             7    6     1      -0.3222338130E-02       7    6    1        -0.1789654921E+00      0.1967120120E+00
          0                 5           2             7    6     1      -0.5701654813E-03       7    6    1        -0.3164071352E-01      0.4796533808E-01
          0                 6           2             8    3     1       0.1301016175E-03       7    6    1        -0.5600799402E-02      0.1707079247E-01
          0                 7           1             8    3     1       0.5839741506E-04       8    3    1         0.1518235123E-02      0.7288738894E-02
          0                 8           1             8    3     1       0.2621182130E-04       8    3    1         0.6814729422E-03      0.3238601868E-02
          0                 9           1             8    3     1       0.1176504140E-04       8    3    1         0.3058798373E-03      0.1448678737E-02
          0                10           1             8    3     1       0.5280589956E-05       8    3    1         0.1372921715E-03      0.6487338143E-03

    ------------------------------------------------
       NWT REQUIRED           10 OUTER ITERATIONS 
       AND A TOTAL OF         16 INNER ITERATIONS.
    ------------------------------------------------

 NO OUTPUT CONTROL FOR STRESS PERIOD    6   TIME STEP    9
 
 SOLVING FOR HEAD 
                                                   Max.-Head-Change                         Max.-Flux-Residual
  Residual-Control   Outer-Iter.   Inner-Iter.     Column Row Layer    Maximum-Head-Change  Column Row Layer    Maximum-Flux-Residual          L2-NORM 
          0                 1           2             7    6     1      -0.2887624969E+00       7    6    1        -0.1573790156E+02      0.1587721113E+02
          0                 2           2             7    6     1       0.3170357583E+00       7    6    1         0.1745117780E+02      0.1745826573E+02
          0                 3           2             7    6     1      -0.1823191733E-01       7    6    1        -0.1013492844E+01      0.1035476864E+01
          0                 4           2             7    6     1      -0.3221926475E-02       7    6    1        -0.1789429896E+00      0.1966614805E+00
          0                 5           2             7    6     1      -0.5700909918E-03       7    6    1        -0.3163663838E-01      0.4793777132E-01
          0                 6           2             8    3     1       0.1298958330E-03       7    6    1        -0.5600062374E-02      0.1705652863E-01
          0                 7           1             8    3     1       0.5830463061E-04       8    3    1         0.1515831675E-02      0.7282138240E-02
          0                 8           1             8    3     1       0.2616999273E-04       8    3    1         0.6803893060E-03      0.3235630893E-02
          0                 9           1             8    3     1       0.1174618778E-04       8    3    1         0.3053913442E-03      0.1447347793E-02
          0                10           1             8    3     1       0.5272093433E-05       8    3    1         0.1370719977E-03      0.6481379578E-03

    ------------------------------------------------
       NWT REQUIRED           10 OUTER ITERATIONS 
       AND A TOTAL OF         16 INNER ITERATIONS.
    ------------------------------------------------

 OUTPUT CONTROL FOR STRESS PERIOD    6   TIME STEP   10
    PRINT BUDGET
    SAVE BUDGET
 UBUDSV SAVING "         STORAGE" ON UNIT102 AT TIME STEP    10, STRESS PERIOD    6
 UBUDSV SAVING "   CONSTANT HEAD" ON UNIT102 AT TIME STEP    10, STRESS PERIOD    6
 UBUDSV SAVING "FLOW RIGHT FACE " ON UNIT102 AT TIME STEP    10, STRESS PERIOD    6
 UBUDSV SAVING "FLOW FRONT FACE " ON UNIT102 AT TIME STEP    10, STRESS PERIOD    6

  HEAD DEP BOUNDS   PERIOD    6   STEP    10
 BOUNDARY      1   LAYER   1   ROW    13   COL     1   RATE   -0.292752    
 BOUNDARY      2   LAYER   1   ROW    14   COL     9   RATE     1.05055    



 STREAM LISTING     PERIOD      6   STEP       10

 LAYER ROW COL. STREAM  RCH.  FLOW INTO     FLOW TO   FLOW OUT OF   OVRLND.     DIRECT     STREAM       STREAM     STREAM     STREAM   STREAMBED  STREAMBED
                SEG.NO.  NO.  STRM. RCH.    AQUIFER    STRM. RCH.    RUNOFF     PRECIP       ET          HEAD       DEPTH      WIDTH   CONDCTNC.   GRADIENT

   1    1    1     1     1    9.9000E+01  4.7281E-09   9.9000E+01  0.000E+00  0.000E+00  0.000E+00  1.09484E+03  1.796E+00  2.191E+01  9.859E-10  1.599E+00
   1    2    2     1     2    9.9000E+01  7.3508E-09   9.9000E+01  0.000E+00  0.000E+00  0.000E+00  1.08985E+03  1.795E+00  2.190E+01  1.533E-09  1.598E+00
   1    3    3     1     3    9.9000E+01  6.3021E-09   9.9000E+01  0.000E+00  0.000E+00  0.000E+00  1.08421E+03  1.795E+00  2.190E+01  1.314E-09  1.598E+00
   1    3    4     1     4    9.9000E+01  5.8300E-09   9.9000E+01  0.000E+00  0.000E+00  0.000E+00  1.07920E+03  1.795E+00  2.191E+01  1.216E-09  1.598E+00
   1    4    5     2     1    9.7000E+01  4.4618E-01   9.6554E+01  0.000E+00  0.000E+00  0.000E+00  1.07465E+03  2.720E+00  1.200E+01  7.800E-02  1.907E+00
   1    5    6     2     2    9.6554E+01  3.4281E-01   9.6211E+01  0.000E+00  0.000E+00  0.000E+00  1.06922E+03  2.714E+00  1.200E+01  6.000E-02  1.905E+00
   1    6    6     2     3    9.6211E+01  3.4247E-01   9.5869E+01  0.000E+00  0.000E+00  0.000E+00  1.06450E+03  2.708E+00  1.200E+01  6.000E-02  1.903E+00
   1    7    6     2     4    9.5869E+01  3.4212E-01   9.5526E+01  0.000E+00  0.000E+00  0.000E+00  1.05978E+03  2.702E+00  1.200E+01  6.000E-02  1.901E+00
   1    8    6     2     5    9.5526E+01  3.4177E-01   9.5185E+01  0.000E+00  0.000E+00  0.000E+00  1.05505E+03  2.696E+00  1.200E+01  6.000E-02  1.899E+00
   1    3    5     3     1    2.0000E+00  2.8252E-01   1.7175E+00  0.000E+00  0.000E+00  0.000E+00  1.07555E+03  1.909E+00  9.636E+00  7.227E-02  1.955E+00
   1    3    6     3     2    1.7175E+00  2.4905E-01   1.4684E+00  0.000E+00  0.000E+00  0.000E+00  1.07264E+03  1.727E+00  8.909E+00  6.682E-02  1.864E+00
   1    3    7     3     3    1.4684E+00  1.9718E-01   1.2712E+00  0.000E+00  0.000E+00  0.000E+00  1.06987E+03  1.555E+00  8.218E+00  5.547E-02  1.777E+00
   1    4    8     3     4    1.2712E+00  2.2567E-01   1.0456E+00  0.000E+00  0.000E+00  0.000E+00  1.06682E+03  1.364E+00  7.455E+00  6.709E-02  1.682E+00
   1    5    8     3     5    1.0456E+00  1.5790E-01   8.8768E-01  0.000E+00  0.000E+00  0.000E+00  1.06362E+03  1.164E+00  6.655E+00  4.991E-02  1.582E+00
   1    6    8     3     6    8.8768E-01  5.5980E-02   8.3170E-01  0.000E+00  0.000E+00  0.000E+00  1.06158E+03  1.036E+00  6.145E+00  1.844E-02  1.518E+00
   1    5   10     4     1    1.0000E+01  9.0919E-02   9.9091E+00  0.000E+00  0.000E+00  0.000E+00  1.07836E+03  6.368E-01  1.000E+01  2.500E-02  1.212E+00
   1    5    9     4     2    9.9091E+00  1.8158E-01   9.7275E+00  0.000E+00  0.000E+00  0.000E+00  1.07154E+03  6.315E-01  1.000E+01  5.000E-02  1.211E+00
   1    6    8     4     3    9.7275E+00  1.2689E-01   9.6006E+00  0.000E+00  0.000E+00  0.000E+00  1.06381E+03  6.256E-01  1.000E+01  3.500E-02  1.209E+00
   1    6    8     5     1    1.0432E+01  2.2686E-09   1.0432E+01  0.000E+00  0.000E+00  0.000E+00  1.05868E+03  6.790E-01  1.542E+01  6.166E-10  1.226E+00
   1    7    7     5     2    1.0432E+01  2.8306E-09   1.0432E+01  0.000E+00  0.000E+00  0.000E+00  1.05418E+03  6.784E-01  1.539E+01  7.695E-10  1.226E+00
   1    8    7     5     3    1.0432E+01  1.9868E-09   1.0432E+01  0.000E+00  0.000E+00  0.000E+00  1.04993E+03  6.794E-01  1.543E+01  5.400E-10  1.226E+00
   1    8    6     5     4    1.0432E+01  1.4217E-09   1.0432E+01  0.000E+00  0.000E+00  0.000E+00  1.04693E+03  6.800E-01  1.545E+01  3.863E-10  1.227E+00
   1    9    6     6     1    1.0562E+02  3.5375E-01   1.0526E+02  0.000E+00  0.000E+00  0.000E+00  1.04562E+03  2.896E+00  1.200E+01  6.000E-02  1.965E+00
   1   10    7     6     2    1.0526E+02  3.5340E-01   1.0491E+02  0.000E+00  0.000E+00  0.000E+00  1.04107E+03  2.890E+00  1.200E+01  6.000E-02  1.963E+00
   1   11    7     6     3    1.0491E+02  3.5305E-01   1.0456E+02  0.000E+00  0.000E+00  0.000E+00  1.03652E+03  2.884E+00  1.200E+01  6.000E-02  1.961E+00
   1   12    7     6     4    1.0456E+02  3.5270E-01   1.0420E+02  0.000E+00  0.000E+00  0.000E+00  1.03197E+03  2.878E+00  1.200E+01  6.000E-02  1.959E+00
   1   13    7     6     5    1.0420E+02  1.4098E-01   1.0406E+02  0.000E+00  0.000E+00  0.000E+00  1.02878E+03  2.874E+00  1.200E+01  2.400E-02  1.958E+00
   1   14    9     7     1    1.5000E+02  2.9539E-08   1.5000E+02  0.000E+00  0.000E+00  0.000E+00  1.03986E+03  2.283E+00  5.528E+01  5.591E-09  1.761E+00
   1   13    8     7     2    1.5000E+02  3.2486E-14   1.5000E+02  0.000E+00  0.000E+00  0.000E+00  1.03478E+03  2.283E+00  5.527E+01  6.150E-15  1.761E+00
   1   13    7     7     3    1.5000E+02  2.9539E-08   1.5000E+02  0.000E+00  0.000E+00  0.000E+00  1.02970E+03  2.283E+00  5.528E+01  5.591E-09  1.761E+00
   1   13    6     8     1    2.5406E+02  3.2501E-08   2.5406E+02  0.000E+00  0.000E+00  0.000E+00  1.02530E+03  3.424E+00  4.965E+01  5.059E-09  2.141E+00
   1   13    5     8     2    2.5406E+02  3.2501E-08   2.5406E+02  0.000E+00  0.000E+00  0.000E+00  1.01905E+03  3.424E+00  4.965E+01  5.059E-09  2.141E+00
   1   13    4     8     3    2.5406E+02  2.7853E-15   2.5406E+02  0.000E+00  0.000E+00  0.000E+00  1.01280E+03  3.425E+00  4.967E+01  5.061E-16  1.834E+00
   1   13    3     8     4    2.5406E+02  8.2792E-09   2.5406E+02  0.000E+00  0.000E+00  0.000E+00  1.00656E+03  3.430E+00  4.974E+01  5.068E-09  5.445E-01
   1   13    2     8     5    2.5406E+02 -5.0136E-01   2.5456E+02  0.000E+00  0.000E+00  0.000E+00  1.00031E+03  3.434E+00  4.979E+01  5.073E+00 -3.294E-02
   1   13    1     8     6    2.5456E+02 -1.1923E+00   2.5576E+02  0.000E+00  0.000E+00  0.000E+00  9.95313E+02  3.438E+00  4.985E+01  3.048E+00 -1.304E-01
   1    6    8     9     1    0.0000E+00  0.0000E+00   0.0000E+00  0.000E+00  0.000E+00  0.000E+00  1.07850E+03  0.000E+00  4.000E+00  0.000E+00  1.000E+00



 UBDSV3 SAVING "     NETRECHARGE" ON UNIT 100 AT TIME STEP    10, STRESS PERIOD   6
 UBDSV3 SAVING "    NETDISCHARGE" ON UNIT 101 AT TIME STEP    10, STRESS PERIOD   6
 UBDSV3 SAVING "           GW ET" ON UNIT  61 AT TIME STEP    10, STRESS PERIOD   6
 UBDSV3 SAVING "    UZF RECHARGE" ON UNIT  61 AT TIME STEP    10, STRESS PERIOD   6
 UBDSV3 SAVING " SURFACE LEAKAGE" ON UNIT  61 AT TIME STEP    10, STRESS PERIOD   6
 UBDSV3 SAVING "       HORT+DUNN" ON UNIT  61 AT TIME STEP    10, STRESS PERIOD   6
 UBDSV3 SAVING "  STORAGE CHANGE" ON UNIT  61 AT TIME STEP    10, STRESS PERIOD   6


UNSATURATED ZONE PACKAGE VOLUMETRIC BUDGET FOR  TIME STEP    10 STRESS PERIOD    6
  ------------------------------------------------------------------------------



     CUMULATIVE VOLUMES      L**3       RATES FOR THIS TIME STEP      L**3/T
     ------------------                 ------------------------

           IN:                                      IN:
           ---                                      ---
        INFILTRATION =    11878560.0000          INFILTRATION =           0.8475

          OUT:                                     OUT:
          ----                                     ----
              UZF ET =    64837020.1808                UZF ET =          28.5722
        UZF RECHARGE =   327529978.8397          UZF RECHARGE =          27.8852

            IN - OUT =  -380488439.0205              IN - OUT =         -55.6099

          STORAGE:                                 STORAGE:
          --------                                 --------
      STORAGE CHANGE =  -380486920.3610        STORAGE CHANGE =         -55.6092

 PERCENT DISCREPANCY IS DIFFERENCE BETWEEN IN-OUT MINUS CHANGE IN STORAGE
 DIVIDED BY THE AVERAGE OF IN AND OUT TIMES 100

 PERCENT DISCREPANCY =          -0.00     PERCENT DISCREPANCY =          -0.00






1
  VOLUMETRIC BUDGET FOR ENTIRE MODEL AT END OF TIME STEP   10, STRESS PERIOD   6
  ------------------------------------------------------------------------------

     CUMULATIVE VOLUMES      L**3       RATES FOR THIS TIME STEP      L**3/T
     ------------------                 ------------------------

           IN:                                      IN:
           ---                                      ---
             STORAGE =     1906662.7500               STORAGE =           0.0000
       CONSTANT HEAD =           0.0000         CONSTANT HEAD =           0.0000
               WELLS =           0.0000                 WELLS =           0.0000
     HEAD DEP BOUNDS =    14885302.0000       HEAD DEP BOUNDS =           1.0505
      STREAM LEAKAGE =    52871400.0000        STREAM LEAKAGE =           4.9369
        UZF RECHARGE =   327529984.0000          UZF RECHARGE =          27.8852
               GW ET =           0.0000                 GW ET =           0.0000
     SURFACE LEAKAGE =           0.0000       SURFACE LEAKAGE =           0.0000

            TOTAL IN =   397193344.0000              TOTAL IN =          33.8727

          OUT:                                     OUT:
          ----                                     ----
             STORAGE =   353977632.0000               STORAGE =          31.4563
       CONSTANT HEAD =           0.0000         CONSTANT HEAD =           0.0000
               WELLS =           0.0000                 WELLS =           0.0000
     HEAD DEP BOUNDS =     4033656.7500       HEAD DEP BOUNDS =           0.2928
      STREAM LEAKAGE =    36223880.0000        STREAM LEAKAGE =           1.6936
        UZF RECHARGE =           0.0000          UZF RECHARGE =           0.0000
               GW ET =     2930339.2500                 GW ET =           0.4278
     SURFACE LEAKAGE =           0.0000       SURFACE LEAKAGE =           0.0000

           TOTAL OUT =   397165504.0000             TOTAL OUT =          33.8705

            IN - OUT =       27840.0000              IN - OUT =       2.1744E-03

 PERCENT DISCREPANCY =           0.01     PERCENT DISCREPANCY =           0.01






         TIME SUMMARY AT END OF TIME STEP   10 IN STRESS PERIOD    6
                    SECONDS     MINUTES      HOURS       DAYS        YEARS
                    -----------------------------------------------------------
   TIME STEP LENGTH  87600.      1460.0      24.333      1.0139     2.77588E-03
 STRESS PERIOD TIME 8.76000E+05  14600.      243.33      10.139     2.77588E-02
         TOTAL TIME 1.40160E+07 2.33600E+05  3893.3      162.22     0.44414    
1
 
 SOLVING FOR HEAD 
                                                   Max.-Head-Change                         Max.-Flux-Residual
  Residual-Control   Outer-Iter.   Inner-Iter.     Column Row Layer    Maximum-Head-Change  Column Row Layer    Maximum-Flux-Residual          L2-NORM 
          0                 1           2             7    6     1      -0.2887474053E+00       7    6    1        -0.1573709308E+02      0.1587335876E+02
          0                 2           2             7    6     1       0.3170357683E+00       7    6    1         0.1745119519E+02      0.1745825074E+02
          0                 3           2             7    6     1      -0.1822977218E-01       7    6    1        -0.1013375746E+01      0.1035333985E+01
          0                 4           2             7    6     1      -0.3221537493E-02       7    6    1        -0.1789217373E+00      0.1966117619E+00
          0                 5           2             7    6     1      -0.5700205547E-03       7    6    1        -0.3163278675E-01      0.4791005551E-01
          0                 6           2             8    3     1       0.1296894707E-03       7    6    1        -0.5599365251E-02      0.1704210977E-01
          0                 7           1             8    3     1       0.5821161006E-04       8    3    1         0.1513421606E-02      0.7275460059E-02
          0                 8           1             8    3     1       0.2612806949E-04       8    3    1         0.6793029712E-03      0.3232625514E-02
          0                 9           1             8    3     1       0.1172729576E-04       8    3    1         0.3049017469E-03      0.1446002217E-02
          0                10           1             8    3     1       0.5263581154E-05       8    3    1         0.1368513752E-03      0.6475352433E-03

    ------------------------------------------------
       NWT REQUIRED           10 OUTER ITERATIONS 
       AND A TOTAL OF         16 INNER ITERATIONS.
    ------------------------------------------------

 NO OUTPUT CONTROL FOR STRESS PERIOD    6   TIME STEP   11
 
 SOLVING FOR HEAD 
                                                   Max.-Head-Change                         Max.-Flux-Residual
  Residual-Control   Outer-Iter.   Inner-Iter.     Column Row Layer    Maximum-Head-Change  Column Row Layer    Maximum-Flux-Residual          L2-NORM 
          0                 1           2             7    6     1      -0.2887333433E+00       7    6    1        -0.1573634072E+02      0.1587013646E+02
          0                 2           2             7    6     1       0.3170357902E+00       7    6    1         0.1745121314E+02      0.1745824107E+02
          0                 3           2             7    6     1      -0.1822780136E-01       7    6    1        -0.1013268273E+01      0.1035200789E+01
          0                 4           2             7    6     1      -0.3221179631E-02       7    6    1        -0.1789022029E+00      0.1965633296E+00
          0                 5           2             7    6     1      -0.5699556728E-03       7    6    1        -0.3162924176E-01      0.4788229098E-01
          0                 6           2             8    3     1       0.1294825126E-03       7    6    1        -0.5598722890E-02      0.1702756448E-01
          0                 7           1             8    3     1       0.5811833778E-04       8    3    1         0.1511004666E-02      0.7268715582E-02
          0                 8           1             8    3     1       0.2608603933E-04       8    3    1         0.6782137234E-03      0.3229590074E-02
          0                 9           1             8    3     1       0.1170835861E-04       8    3    1         0.3044109226E-03      0.1444642523E-02
          0                10           1             8    3     1       0.5255049992E-05       8    3    1         0.1366302392E-03      0.6469267482E-03

    ------------------------------------------------
       NWT REQUIRED           10 OUTER ITERATIONS 
       AND A TOTAL OF         16 INNER ITERATIONS.
    ------------------------------------------------

 NO OUTPUT CONTROL FOR STRESS PERIOD    6   TIME STEP   12
 
 SOLVING FOR HEAD 
                                                   Max.-Head-Change                         Max.-Flux-Residual
  Residual-Control   Outer-Iter.   Inner-Iter.     Column Row Layer    Maximum-Head-Change  Column Row Layer    Maximum-Flux-Residual          L2-NORM 
          0                 1           2             7    6     1      -0.2887200152E+00       7    6    1        -0.1573562842E+02      0.1586741055E+02
          0                 2           2             7    6     1       0.3170357997E+00       7    6    1         0.1745123031E+02      0.1745823434E+02
          0                 3           2             7    6     1      -0.1822593748E-01       7    6    1        -0.1013166689E+01      0.1035073384E+01
          0                 4           2             7    6     1      -0.3220840916E-02       7    6    1        -0.1788837234E+00      0.1965154494E+00
          0                 5           2             7    6     1      -0.5698942179E-03       7    6    1        -0.3162588564E-01      0.4785430311E-01
          0                 6           2             8    3     1       0.1292736392E-03       7    6    1        -0.5598114323E-02      0.1701283292E-01
          0                 7           1             8    3     1       0.5802422875E-04       8    3    1         0.1508565477E-02      0.7261880149E-02
          0                 8           1             8    3     1       0.2604364388E-04       8    3    1         0.6771147628E-03      0.3226513055E-02
          0                 9           1             8    3     1       0.1168926288E-04       8    3    1         0.3039158641E-03      0.1443265016E-02
          0                10           1             8    3     1       0.5246449298E-05       8    3    1         0.1364072477E-03      0.6463113785E-03

    ------------------------------------------------
       NWT REQUIRED           10 OUTER ITERATIONS 
       AND A TOTAL OF         16 INNER ITERATIONS.
    ------------------------------------------------

 NO OUTPUT CONTROL FOR STRESS PERIOD    6   TIME STEP   13
 
 SOLVING FOR HEAD 
                                                   Max.-Head-Change                         Max.-Flux-Residual
  Residual-Control   Outer-Iter.   Inner-Iter.     Column Row Layer    Maximum-Head-Change  Column Row Layer    Maximum-Flux-Residual          L2-NORM 
          0                 1           2             7    6     1      -0.2887074942E+00       7    6    1        -0.1573495994E+02      0.1586509038E+02
          0                 2           2             7    6     1       0.3170358075E+00       7    6    1         0.1745124734E+02      0.1745823047E+02
          0                 3           2             7    6     1      -0.1822420226E-01       7    6    1        -0.1013072196E+01      0.1034953076E+01
          0                 4           2             7    6     1      -0.3220525228E-02       7    6    1        -0.1788665131E+00      0.1964685577E+00
          0                 5           2             7    6     1      -0.5698368832E-03       7    6    1        -0.3162275663E-01      0.4782630567E-01
          0                 6           2             8    3     1       0.1290643839E-03       7    6    1        -0.5597546378E-02      0.1699802164E-01
          0                 7           1             8    3     1       0.5792996702E-04       8    3    1         0.1506121919E-02      0.7255001869E-02
          0                 8           1             8    3     1       0.2600118766E-04       8    3    1         0.6760140551E-03      0.3223417004E-02
          0                 9           1             8    3     1       0.1167014264E-04       8    3    1         0.3034201175E-03      0.1441878197E-02
          0                10           1             8    3     1       0.5237840601E-05       8    3    1         0.1361840057E-03      0.6456901466E-03

    ------------------------------------------------
       NWT REQUIRED           10 OUTER ITERATIONS 
       AND A TOTAL OF         16 INNER ITERATIONS.
    ------------------------------------------------

 NO OUTPUT CONTROL FOR STRESS PERIOD    6   TIME STEP   14
 
 SOLVING FOR HEAD 
                                                   Max.-Head-Change                         Max.-Flux-Residual
  Residual-Control   Outer-Iter.   Inner-Iter.     Column Row Layer    Maximum-Head-Change  Column Row Layer    Maximum-Flux-Residual          L2-NORM 
          0                 1           2             7    6     1      -0.2886956125E+00       7    6    1        -0.1573432650E+02      0.1586309647E+02
          0                 2           2             7    6     1       0.3170358032E+00       7    6    1         0.1745126359E+02      0.1745822807E+02
          0                 3           2             7    6     1      -0.1822255825E-01       7    6    1        -0.1012982729E+01      0.1034837650E+01
          0                 4           2             7    6     1      -0.3220225866E-02       7    6    1        -0.1788502025E+00      0.1964222881E+00
          0                 5           2             7    6     1      -0.5697824698E-03       7    6    1        -0.3161978864E-01      0.4779826069E-01
          0                 6           2             8    3     1       0.1288533356E-03       7    6    1        -0.5597007247E-02      0.1698312931E-01
          0                 7           1             8    3     1       0.5783491995E-04       8    3    1         0.1503657537E-02      0.7248081317E-02
          0                 8           1             8    3     1       0.2595838828E-04       8    3    1         0.6749042320E-03      0.3220301550E-02
          0                 9           1             8    3     1       0.1165087258E-04       8    3    1         0.3029203742E-03      0.1440483553E-02
          0                10           1             8    3     1       0.5229165124E-05       8    3    1         0.1359590001E-03      0.6450662106E-03

    ------------------------------------------------
       NWT REQUIRED           10 OUTER ITERATIONS 
       AND A TOTAL OF         16 INNER ITERATIONS.
    ------------------------------------------------

 OUTPUT CONTROL FOR STRESS PERIOD    6   TIME STEP   15
    PRINT BUDGET
    PRINT HEAD FOR ALL LAYERS
    SAVE HEAD FOR ALL LAYERS
    SAVE BUDGET
 UBUDSV SAVING "         STORAGE" ON UNIT102 AT TIME STEP    15, STRESS PERIOD    6
 UBUDSV SAVING "   CONSTANT HEAD" ON UNIT102 AT TIME STEP    15, STRESS PERIOD    6
 UBUDSV SAVING "FLOW RIGHT FACE " ON UNIT102 AT TIME STEP    15, STRESS PERIOD    6
 UBUDSV SAVING "FLOW FRONT FACE " ON UNIT102 AT TIME STEP    15, STRESS PERIOD    6

  HEAD DEP BOUNDS   PERIOD    6   STEP    15
 BOUNDARY      1   LAYER   1   ROW    13   COL     1   RATE   -0.293970    
 BOUNDARY      2   LAYER   1   ROW    14   COL     9   RATE     1.04977    



 STREAM LISTING     PERIOD      6   STEP       15

 LAYER ROW COL. STREAM  RCH.  FLOW INTO     FLOW TO   FLOW OUT OF   OVRLND.     DIRECT     STREAM       STREAM     STREAM     STREAM   STREAMBED  STREAMBED
                SEG.NO.  NO.  STRM. RCH.    AQUIFER    STRM. RCH.    RUNOFF     PRECIP       ET          HEAD       DEPTH      WIDTH   CONDCTNC.   GRADIENT

   1    1    1     1     1    9.9000E+01  4.7281E-09   9.9000E+01  0.000E+00  0.000E+00  0.000E+00  1.09484E+03  1.796E+00  2.191E+01  9.859E-10  1.599E+00
   1    2    2     1     2    9.9000E+01  7.3508E-09   9.9000E+01  0.000E+00  0.000E+00  0.000E+00  1.08985E+03  1.795E+00  2.190E+01  1.533E-09  1.598E+00
   1    3    3     1     3    9.9000E+01  6.3021E-09   9.9000E+01  0.000E+00  0.000E+00  0.000E+00  1.08421E+03  1.795E+00  2.190E+01  1.314E-09  1.598E+00
   1    3    4     1     4    9.9000E+01  5.8300E-09   9.9000E+01  0.000E+00  0.000E+00  0.000E+00  1.07920E+03  1.795E+00  2.191E+01  1.216E-09  1.598E+00
   1    4    5     2     1    9.7000E+01  4.4618E-01   9.6554E+01  0.000E+00  0.000E+00  0.000E+00  1.07465E+03  2.720E+00  1.200E+01  7.800E-02  1.907E+00
   1    5    6     2     2    9.6554E+01  3.4281E-01   9.6211E+01  0.000E+00  0.000E+00  0.000E+00  1.06922E+03  2.714E+00  1.200E+01  6.000E-02  1.905E+00
   1    6    6     2     3    9.6211E+01  3.4247E-01   9.5869E+01  0.000E+00  0.000E+00  0.000E+00  1.06450E+03  2.708E+00  1.200E+01  6.000E-02  1.903E+00
   1    7    6     2     4    9.5869E+01  3.4212E-01   9.5526E+01  0.000E+00  0.000E+00  0.000E+00  1.05978E+03  2.702E+00  1.200E+01  6.000E-02  1.901E+00
   1    8    6     2     5    9.5526E+01  3.4177E-01   9.5185E+01  0.000E+00  0.000E+00  0.000E+00  1.05505E+03  2.696E+00  1.200E+01  6.000E-02  1.899E+00
   1    3    5     3     1    2.0000E+00  2.8252E-01   1.7175E+00  0.000E+00  0.000E+00  0.000E+00  1.07555E+03  1.909E+00  9.636E+00  7.227E-02  1.955E+00
   1    3    6     3     2    1.7175E+00  2.4905E-01   1.4684E+00  0.000E+00  0.000E+00  0.000E+00  1.07264E+03  1.727E+00  8.909E+00  6.682E-02  1.864E+00
   1    3    7     3     3    1.4684E+00  1.9718E-01   1.2712E+00  0.000E+00  0.000E+00  0.000E+00  1.06987E+03  1.555E+00  8.218E+00  5.547E-02  1.777E+00
   1    4    8     3     4    1.2712E+00  2.2567E-01   1.0456E+00  0.000E+00  0.000E+00  0.000E+00  1.06682E+03  1.364E+00  7.455E+00  6.709E-02  1.682E+00
   1    5    8     3     5    1.0456E+00  1.5790E-01   8.8768E-01  0.000E+00  0.000E+00  0.000E+00  1.06362E+03  1.164E+00  6.655E+00  4.991E-02  1.582E+00
   1    6    8     3     6    8.8768E-01  5.5980E-02   8.3170E-01  0.000E+00  0.000E+00  0.000E+00  1.06158E+03  1.036E+00  6.145E+00  1.844E-02  1.518E+00
   1    5   10     4     1    1.0000E+01  9.0919E-02   9.9091E+00  0.000E+00  0.000E+00  0.000E+00  1.07836E+03  6.368E-01  1.000E+01  2.500E-02  1.212E+00
   1    5    9     4     2    9.9091E+00  1.8158E-01   9.7275E+00  0.000E+00  0.000E+00  0.000E+00  1.07154E+03  6.315E-01  1.000E+01  5.000E-02  1.211E+00
   1    6    8     4     3    9.7275E+00  1.2689E-01   9.6006E+00  0.000E+00  0.000E+00  0.000E+00  1.06381E+03  6.256E-01  1.000E+01  3.500E-02  1.209E+00
   1    6    8     5     1    1.0432E+01  2.2686E-09   1.0432E+01  0.000E+00  0.000E+00  0.000E+00  1.05868E+03  6.790E-01  1.542E+01  6.166E-10  1.226E+00
   1    7    7     5     2    1.0432E+01  2.8306E-09   1.0432E+01  0.000E+00  0.000E+00  0.000E+00  1.05418E+03  6.784E-01  1.539E+01  7.695E-10  1.226E+00
   1    8    7     5     3    1.0432E+01  1.9868E-09   1.0432E+01  0.000E+00  0.000E+00  0.000E+00  1.04993E+03  6.794E-01  1.543E+01  5.400E-10  1.226E+00
   1    8    6     5     4    1.0432E+01  1.4217E-09   1.0432E+01  0.000E+00  0.000E+00  0.000E+00  1.04693E+03  6.800E-01  1.545E+01  3.863E-10  1.227E+00
   1    9    6     6     1    1.0562E+02  3.5375E-01   1.0526E+02  0.000E+00  0.000E+00  0.000E+00  1.04562E+03  2.896E+00  1.200E+01  6.000E-02  1.965E+00
   1   10    7     6     2    1.0526E+02  3.5340E-01   1.0491E+02  0.000E+00  0.000E+00  0.000E+00  1.04107E+03  2.890E+00  1.200E+01  6.000E-02  1.963E+00
   1   11    7     6     3    1.0491E+02  3.5305E-01   1.0456E+02  0.000E+00  0.000E+00  0.000E+00  1.03652E+03  2.884E+00  1.200E+01  6.000E-02  1.961E+00
   1   12    7     6     4    1.0456E+02  3.5270E-01   1.0420E+02  0.000E+00  0.000E+00  0.000E+00  1.03197E+03  2.878E+00  1.200E+01  6.000E-02  1.959E+00
   1   13    7     6     5    1.0420E+02  1.4098E-01   1.0406E+02  0.000E+00  0.000E+00  0.000E+00  1.02878E+03  2.874E+00  1.200E+01  2.400E-02  1.958E+00
   1   14    9     7     1    1.5000E+02  2.9539E-08   1.5000E+02  0.000E+00  0.000E+00  0.000E+00  1.03986E+03  2.283E+00  5.528E+01  5.591E-09  1.761E+00
   1   13    8     7     2    1.5000E+02  3.2486E-14   1.5000E+02  0.000E+00  0.000E+00  0.000E+00  1.03478E+03  2.283E+00  5.527E+01  6.150E-15  1.761E+00
   1   13    7     7     3    1.5000E+02  2.9539E-08   1.5000E+02  0.000E+00  0.000E+00  0.000E+00  1.02970E+03  2.283E+00  5.528E+01  5.591E-09  1.761E+00
   1   13    6     8     1    2.5406E+02  3.2501E-08   2.5406E+02  0.000E+00  0.000E+00  0.000E+00  1.02530E+03  3.424E+00  4.965E+01  5.059E-09  2.141E+00
   1   13    5     8     2    2.5406E+02  3.2501E-08   2.5406E+02  0.000E+00  0.000E+00  0.000E+00  1.01905E+03  3.424E+00  4.965E+01  5.059E-09  2.141E+00
   1   13    4     8     3    2.5406E+02  0.0000E+00   2.5406E+02  0.000E+00  0.000E+00  0.000E+00  1.01281E+03  3.432E+00  4.977E+01  0.000E+00  1.831E+00
   1   13    3     8     4    2.5406E+02  8.2074E-12   2.5406E+02  0.000E+00  0.000E+00  0.000E+00  1.00656E+03  3.430E+00  4.974E+01  5.068E-12  5.398E-01
   1   13    2     8     5    2.5406E+02 -7.1354E-01   2.5478E+02  0.000E+00  0.000E+00  0.000E+00  1.00031E+03  3.434E+00  4.979E+01  5.074E+00 -4.687E-02
   1   13    1     8     6    2.5478E+02 -1.2865E+00   2.5606E+02  0.000E+00  0.000E+00  0.000E+00  9.95314E+02  3.439E+00  4.987E+01  3.049E+00 -1.406E-01
   1    6    8     9     1    0.0000E+00  0.0000E+00   0.0000E+00  0.000E+00  0.000E+00  0.000E+00  1.07850E+03  0.000E+00  4.000E+00  0.000E+00  1.000E+00



 UBDSV3 SAVING "     NETRECHARGE" ON UNIT 100 AT TIME STEP    15, STRESS PERIOD   6
 UBDSV3 SAVING "    NETDISCHARGE" ON UNIT 101 AT TIME STEP    15, STRESS PERIOD   6
 UBDSV3 SAVING "           GW ET" ON UNIT  61 AT TIME STEP    15, STRESS PERIOD   6
 UBDSV3 SAVING "    UZF RECHARGE" ON UNIT  61 AT TIME STEP    15, STRESS PERIOD   6
 UBDSV3 SAVING " SURFACE LEAKAGE" ON UNIT  61 AT TIME STEP    15, STRESS PERIOD   6
 UBDSV3 SAVING "       HORT+DUNN" ON UNIT  61 AT TIME STEP    15, STRESS PERIOD   6
 UBDSV3 SAVING "  STORAGE CHANGE" ON UNIT  61 AT TIME STEP    15, STRESS PERIOD   6


UNSATURATED ZONE PACKAGE VOLUMETRIC BUDGET FOR  TIME STEP    15 STRESS PERIOD    6
  ------------------------------------------------------------------------------



     CUMULATIVE VOLUMES      L**3       RATES FOR THIS TIME STEP      L**3/T
     ------------------                 ------------------------

           IN:                                      IN:
           ---                                      ---
        INFILTRATION =    12249765.0000          INFILTRATION =           0.8475

          OUT:                                     OUT:
          ----                                     ----
              UZF ET =    77350824.8107                UZF ET =          28.5693
        UZF RECHARGE =   339718706.6019          UZF RECHARGE =          27.7942

            IN - OUT =  -404819766.4126              IN - OUT =         -55.5160

          STORAGE:                                 STORAGE:
          --------                                 --------
      STORAGE CHANGE =  -404817999.7259        STORAGE CHANGE =         -55.5155

 PERCENT DISCREPANCY IS DIFFERENCE BETWEEN IN-OUT MINUS CHANGE IN STORAGE
 DIVIDED BY THE AVERAGE OF IN AND OUT TIMES 100

 PERCENT DISCREPANCY =          -0.00     PERCENT DISCREPANCY =          -0.00






1
              HEAD IN LAYER   1 AT END OF TIME STEP    15 IN STRESS PERIOD    6
  -----------------------------------------------------------------------------

           1       2       3       4       5       6       7       8       9      10
 ...................................................................................
   1  1011.86 1011.71 6999.00 6999.00 6999.00 6999.00 6999.00 6999.00 6999.00 6999.00
   2  1012.76 1011.44 1011.36 6999.00 6999.00 1013.15 1013.22 1013.19 6999.00 6999.00
   3  6999.00 1011.83 1011.42 1011.49 1012.43 1013.05 1013.32 1013.07 6999.00 6999.00
   4  1012.72 1012.15 1011.61 1011.43 1011.68 1011.69 1012.17 1013.17 1012.97 6999.00
   5  1012.66 1012.10 1011.59 1011.26 1011.35 1011.53 1011.56 1011.88 1012.39 1012.94
   6  1012.55 1011.96 1011.45 1011.08 1011.14 1011.36 1011.38 1011.62 1012.34 1013.49
   7  1012.44 1011.72 1011.23 1010.86 1010.92 1011.16 1011.17 1011.36 1012.32 6999.00
   8  6999.00 1011.29 1010.91 1010.59 1010.66 1010.92 1010.95 1011.53 1012.40 6999.00
   9  6999.00 1010.60 1010.40 1010.19 1010.32 1010.64 1010.78 1011.53 1012.50 6999.00
  10  6999.00 1009.59 1009.63 1009.66 1009.90 1010.29 1010.77 1011.56 1012.67 1013.44
  11  6999.00 1007.84 1008.28 1008.94 1009.44 1010.03 1010.73 1011.72 1013.03 6999.00
  12  1000.62 1004.38 1006.54 1007.96 1008.94 1009.85 1010.78 1012.15 1014.09 6999.00
  13   995.74 1000.45 1004.94 1007.31 1008.67 1009.82 1011.11 1012.68 1015.23 6999.00
  14  6999.00 1004.38 1006.04 1007.87 1009.29 1010.60 1012.20 1014.65 1017.37 6999.00
  15  6999.00 6999.00 1008.02 1008.99 1010.05 1010.83 6999.00 6999.00 6999.00 6999.00

 HEAD WILL BE SAVED ON UNIT   62 AT END OF TIME STEP   15, STRESS PERIOD    6
1
  VOLUMETRIC BUDGET FOR ENTIRE MODEL AT END OF TIME STEP   15, STRESS PERIOD   6
  ------------------------------------------------------------------------------

     CUMULATIVE VOLUMES      L**3       RATES FOR THIS TIME STEP      L**3/T
     ------------------                 ------------------------

           IN:                                      IN:
           ---                                      ---
             STORAGE =     1906662.7500               STORAGE =           0.0000
       CONSTANT HEAD =           0.0000         CONSTANT HEAD =           0.0000
               WELLS =           0.0000                 WELLS =           0.0000
     HEAD DEP BOUNDS =    15345238.0000       HEAD DEP BOUNDS =           1.0498
      STREAM LEAKAGE =    55033780.0000        STREAM LEAKAGE =           4.9369
        UZF RECHARGE =   339718720.0000          UZF RECHARGE =          27.7942
               GW ET =           0.0000                 GW ET =           0.0000
     SURFACE LEAKAGE =           0.0000       SURFACE LEAKAGE =           0.0000

            TOTAL IN =   412004416.0000              TOTAL IN =          33.7809

          OUT:                                     OUT:
          ----                                     ----
             STORAGE =   367643584.0000               STORAGE =          31.0540
       CONSTANT HEAD =           0.0000         CONSTANT HEAD =           0.0000
               WELLS =           0.0000                 WELLS =           0.0000
     HEAD DEP BOUNDS =     4162212.7500       HEAD DEP BOUNDS =           0.2940
      STREAM LEAKAGE =    37051228.0000        STREAM LEAKAGE =           2.0000
        UZF RECHARGE =           0.0000          UZF RECHARGE =           0.0000
               GW ET =     3118534.5000                 GW ET =           0.4307
     SURFACE LEAKAGE =           0.0000       SURFACE LEAKAGE =           0.0000

           TOTAL OUT =   411975552.0000             TOTAL OUT =          33.7787

            IN - OUT =       28864.0000              IN - OUT =       2.1744E-03

 PERCENT DISCREPANCY =           0.01     PERCENT DISCREPANCY =           0.01






         TIME SUMMARY AT END OF TIME STEP   15 IN STRESS PERIOD    6
                    SECONDS     MINUTES      HOURS       DAYS        YEARS
                    -----------------------------------------------------------
   TIME STEP LENGTH  87600.      1460.0      24.333      1.0139     2.77588E-03
 STRESS PERIOD TIME 1.31400E+06  21900.      365.00      15.208     4.16381E-02
         TOTAL TIME 1.44540E+07 2.40900E+05  4015.0      167.29     0.45802    
1
 
 SOLVING FOR HEAD 
                                                   Max.-Head-Change                         Max.-Flux-Residual
  Residual-Control   Outer-Iter.   Inner-Iter.     Column Row Layer    Maximum-Head-Change  Column Row Layer    Maximum-Flux-Residual          L2-NORM 
          0                 1           2             7    6     1      -0.2886845614E+00       7    6    1        -0.1573373828E+02      0.1586138251E+02
          0                 2           2             7    6     1       0.3170358087E+00       7    6    1         0.1745128032E+02      0.1745819922E+02
          0                 3           2             7    6     1      -0.1822105541E-01       7    6    1        -0.1012901054E+01      0.1034725947E+01
          0                 4           2             7    6     1      -0.3219951706E-02       7    6    1        -0.1788352830E+00      0.1963771736E+00
          0                 5           2             7    6     1      -0.5697325539E-03       7    6    1        -0.3161706892E-01      0.4777039386E-01
          0                 6           2             8    3     1       0.1286419511E-03       7    6    1        -0.5596512434E-02      0.1696826048E-01
          0                 7           1             8    3     1       0.5773973244E-04       8    3    1         0.1501189274E-02      0.7241167416E-02
          0                 8           1             8    3     1       0.2591553000E-04       8    3    1         0.6737927825E-03      0.3217189175E-02
          0                 9           1             8    3     1       0.1163157802E-04       8    3    1         0.3024199553E-03      0.1439090568E-02
          0                10           1             8    3     1       0.5220479643E-05       8    3    1         0.1357337191E-03      0.6444429360E-03

    ------------------------------------------------
       NWT REQUIRED           10 OUTER ITERATIONS 
       AND A TOTAL OF         16 INNER ITERATIONS.
    ------------------------------------------------

 NO OUTPUT CONTROL FOR STRESS PERIOD    6   TIME STEP   16
 
 SOLVING FOR HEAD 
                                                   Max.-Head-Change                         Max.-Flux-Residual
  Residual-Control   Outer-Iter.   Inner-Iter.     Column Row Layer    Maximum-Head-Change  Column Row Layer    Maximum-Flux-Residual          L2-NORM 
          0                 1           2             7    6     1      -0.2886740575E+00       7    6    1        -0.1573317998E+02      0.1585981055E+02
          0                 2           2             7    6     1       0.3170358006E+00       7    6    1         0.1745129623E+02      0.1745819948E+02
          0                 3           2             7    6     1      -0.1821962855E-01       7    6    1        -0.1012823560E+01      0.1034622059E+01
          0                 4           2             7    6     1      -0.3219691172E-02       7    6    1        -0.1788211135E+00      0.1963327814E+00
          0                 5           2             7    6     1      -0.5696850823E-03       7    6    1        -0.3161448375E-01      0.4774254485E-01
          0                 6           2             8    3     1       0.1284304671E-03       7    6    1        -0.5596041726E-02      0.1695335563E-01
          0                 7           1             8    3     1       0.5764452404E-04       8    3    1         0.1498719973E-02      0.7234232943E-02
          0                 8           1             8    3     1       0.2587267310E-04       8    3    1         0.6726811491E-03      0.3214067302E-02
          0                 9           1             8    3     1       0.1161228858E-04       8    3    1         0.3019195772E-03      0.1437692546E-02
          0                10           1             8    3     1       0.5211798914E-05       8    3    1         0.1355085113E-03      0.6438177802E-03

    ------------------------------------------------
       NWT REQUIRED           10 OUTER ITERATIONS 
       AND A TOTAL OF         16 INNER ITERATIONS.
    ------------------------------------------------

 NO OUTPUT CONTROL FOR STRESS PERIOD    6   TIME STEP   17
 
 SOLVING FOR HEAD 
                                                   Max.-Head-Change                         Max.-Flux-Residual
  Residual-Control   Outer-Iter.   Inner-Iter.     Column Row Layer    Maximum-Head-Change  Column Row Layer    Maximum-Flux-Residual          L2-NORM 
          0                 1           2             7    6     1      -0.2886641785E+00       7    6    1        -0.1573265594E+02      0.1585846652E+02
          0                 2           2             7    6     1       0.3170357910E+00       7    6    1         0.1745131195E+02      0.1745820434E+02
          0                 3           2             7    6     1      -0.1821829931E-01       7    6    1        -0.1012751454E+01      0.1034524347E+01
          0                 4           2             7    6     1      -0.3219448067E-02       7    6    1        -0.1788079060E+00      0.1962891497E+00
          0                 5           2             7    6     1      -0.5696407213E-03       7    6    1        -0.3161207029E-01      0.4771465769E-01
          0                 6           2             8    3     1       0.1282187349E-03       7    6    1        -0.5595601681E-02      0.1693836858E-01
          0                 7           1             8    3     1       0.5754921047E-04       8    3    1         0.1496247795E-02      0.7227255113E-02
          0                 8           1             8    3     1       0.2582977168E-04       8    3    1         0.6715682973E-03      0.3210925905E-02
          0                 9           1             8    3     1       0.1159298063E-04       8    3    1         0.3014186857E-03      0.1436285723E-02
          0                10           1             8    3     1       0.5203110432E-05       8    3    1         0.1352830866E-03      0.6431887455E-03

    ------------------------------------------------
       NWT REQUIRED           10 OUTER ITERATIONS 
       AND A TOTAL OF         16 INNER ITERATIONS.
    ------------------------------------------------

 NO OUTPUT CONTROL FOR STRESS PERIOD    6   TIME STEP   18
 
 SOLVING FOR HEAD 
                                                   Max.-Head-Change                         Max.-Flux-Residual
  Residual-Control   Outer-Iter.   Inner-Iter.     Column Row Layer    Maximum-Head-Change  Column Row Layer    Maximum-Flux-Residual          L2-NORM 
          0                 1           2             7    6     1      -0.2886547708E+00       7    6    1        -0.1573215750E+02      0.1585725685E+02
          0                 2           2             7    6     1       0.3170357666E+00       7    6    1         0.1745132681E+02      0.1745820720E+02
          0                 3           2             7    6     1      -0.1821703374E-01       7    6    1        -0.1012682846E+01      0.1034428785E+01
          0                 4           2             7    6     1      -0.3219216409E-02       7    6    1        -0.1787953277E+00      0.1962458090E+00
          0                 5           2             7    6     1      -0.5695984166E-03       7    6    1        -0.3160976993E-01      0.4768674960E-01
          0                 6           2             8    3     1       0.1280055713E-03       7    6    1        -0.5595181953E-02      0.1692334300E-01
          0                 7           1             8    3     1       0.5745328213E-04       8    3    1         0.1493759054E-02      0.7220257164E-02
          0                 8           1             8    3     1       0.2578660664E-04       8    3    1         0.6704483324E-03      0.3207774781E-02
          0                 9           1             8    3     1       0.1157355938E-04       8    3    1         0.3009147385E-03      0.1434874934E-02
          0                10           1             8    3     1       0.5194373053E-05       8    3    1         0.1350563524E-03      0.6425573113E-03

    ------------------------------------------------
       NWT REQUIRED           10 OUTER ITERATIONS 
       AND A TOTAL OF         16 INNER ITERATIONS.
    ------------------------------------------------

 NO OUTPUT CONTROL FOR STRESS PERIOD    6   TIME STEP   19
 
 SOLVING FOR HEAD 
                                                   Max.-Head-Change                         Max.-Flux-Residual
  Residual-Control   Outer-Iter.   Inner-Iter.     Column Row Layer    Maximum-Head-Change  Column Row Layer    Maximum-Flux-Residual          L2-NORM 
          0                 1           2             7    6     1      -0.2886460358E+00       7    6    1        -0.1573169579E+02      0.1585616597E+02
          0                 2           2             7    6     1       0.3170357514E+00       7    6    1         0.1745134212E+02      0.1745821153E+02
          0                 3           2             7    6     1      -0.1821588317E-01       7    6    1        -0.1012620588E+01      0.1034339937E+01
          0                 4           2             7    6     1      -0.3219005273E-02       7    6    1        -0.1787838824E+00      0.1962035443E+00
          0                 5           2             7    6     1      -0.5695597750E-03       7    6    1        -0.3160767172E-01      0.4765891859E-01
          0                 6           2             8    3     1       0.1277922873E-03       7    6    1        -0.5594798286E-02      0.1690828451E-01
          0                 7           1             8    3     1       0.5735730502E-04       8    3    1         0.1491268937E-02      0.7213237858E-02
          0                 8           1             8    3     1       0.2574342184E-04       8    3    1         0.6693278092E-03      0.3204613791E-02
          0                 9           1             8    3     1       0.1155413051E-04       8    3    1         0.3004105721E-03      0.1433459675E-02
          0                10           1             8    3     1       0.5185633047E-05       8    3    1         0.1348295314E-03      0.6419244885E-03

    ------------------------------------------------
       NWT REQUIRED           10 OUTER ITERATIONS 
       AND A TOTAL OF         16 INNER ITERATIONS.
    ------------------------------------------------

 NO OUTPUT CONTROL FOR STRESS PERIOD    6   TIME STEP   20
 
 SOLVING FOR HEAD 
                                                   Max.-Head-Change                         Max.-Flux-Residual
  Residual-Control   Outer-Iter.   Inner-Iter.     Column Row Layer    Maximum-Head-Change  Column Row Layer    Maximum-Flux-Residual          L2-NORM 
          0                 1           2             7    6     1      -0.2886376969E+00       7    6    1        -0.1573125588E+02      0.1585523662E+02
          0                 2           2             7    6     1       0.3170357222E+00       7    6    1         0.1745135656E+02      0.1745821641E+02
          0                 3           2             7    6     1      -0.1821478318E-01       7    6    1        -0.1012561114E+01      0.1034254241E+01
          0                 4           2             7    6     1      -0.3218803202E-02       7    6    1        -0.1787729363E+00      0.1961618812E+00
          0                 5           2             7    6     1      -0.5695227568E-03       7    6    1        -0.3160566298E-01      0.4763123247E-01
          0                 6           2             8    3     1       0.1275776254E-03       7    6    1        -0.5594430635E-02      0.1689327375E-01
          0                 7           1             8    3     1       0.5726073115E-04       8    3    1         0.1488762841E-02      0.7206237883E-02
          0                 8           1             8    3     1       0.2569997855E-04       8    3    1         0.6682003615E-03      0.3201461584E-02
          0                 9           1             8    3     1       0.1153458971E-04       8    3    1         0.2999034059E-03      0.1432048315E-02
          0                10           1             8    3     1       0.5176844520E-05       8    3    1         0.1346014139E-03      0.6412929532E-03

    ------------------------------------------------
       NWT REQUIRED           10 OUTER ITERATIONS 
       AND A TOTAL OF         16 INNER ITERATIONS.
    ------------------------------------------------

 NO OUTPUT CONTROL FOR STRESS PERIOD    6   TIME STEP   21
 
 SOLVING FOR HEAD 
                                                   Max.-Head-Change                         Max.-Flux-Residual
  Residual-Control   Outer-Iter.   Inner-Iter.     Column Row Layer    Maximum-Head-Change  Column Row Layer    Maximum-Flux-Residual          L2-NORM 
          0                 1           2             7    6     1      -0.2886298444E+00       7    6    1        -0.1573084247E+02      0.1585440661E+02
          0                 2           2             7    6     1       0.3170356893E+00       7    6    1         0.1745137076E+02      0.1745822138E+02
          0                 3           2             7    6     1      -0.1821375819E-01       7    6    1        -0.1012505773E+01      0.1034172547E+01
          0                 4           2             7    6     1      -0.3218614557E-02       7    6    1        -0.1787627301E+00      0.1961209129E+00
          0                 5           2             7    6     1      -0.5694881411E-03       7    6    1        -0.3160378665E-01      0.4760364894E-01
          0                 6           2             8    3     1       0.1273630737E-03       7    6    1        -0.5594086700E-02      0.1687827448E-01
          0                 7           1             8    3     1       0.5716421967E-04       8    3    1         0.1486258085E-02      0.7199239488E-02
          0                 8           1             8    3     1       0.2565656903E-04       8    3    1         0.6670736724E-03      0.3198309580E-02
          0                 9           1             8    3     1       0.1151506716E-04       8    3    1         0.2993966502E-03      0.1430637028E-02
          0                10           1             8    3     1       0.5168064872E-05       8    3    1         0.1343735044E-03      0.6406615800E-03

    ------------------------------------------------
       NWT REQUIRED           10 OUTER ITERATIONS 
       AND A TOTAL OF         16 INNER ITERATIONS.
    ------------------------------------------------

 NO OUTPUT CONTROL FOR STRESS PERIOD    6   TIME STEP   22
 
 SOLVING FOR HEAD 
                                                   Max.-Head-Change                         Max.-Flux-Residual
  Residual-Control   Outer-Iter.   Inner-Iter.     Column Row Layer    Maximum-Head-Change  Column Row Layer    Maximum-Flux-Residual          L2-NORM 
          0                 1           2             7    6     1      -0.2886225641E+00       7    6    1        -0.1573046023E+02      0.1585366744E+02
          0                 2           2             7    6     1       0.3170356644E+00       7    6    1         0.1745138535E+02      0.1745822698E+02
          0                 3           2             7    6     1      -0.1821283138E-01       7    6    1        -0.1012455852E+01      0.1034096112E+01
          0                 4           2             7    6     1      -0.3218443437E-02       7    6    1        -0.1787534913E+00      0.1960808523E+00
          0                 5           2             7    6     1      -0.5694566541E-03       7    6    1        -0.3160208301E-01      0.4757620003E-01
          0                 6           2             8    3     1       0.1271486541E-03       7    6    1        -0.5593773598E-02      0.1686329289E-01
          0                 7           1             8    3     1       0.5706777911E-04       8    3    1         0.1483754940E-02      0.7192245012E-02
          0                 8           1             8    3     1       0.2561319690E-04       8    3    1         0.6659478417E-03      0.3195158779E-02
          0                 9           1             8    3     1       0.1149556288E-04       8    3    1         0.2988903341E-03      0.1429226290E-02
          0                10           1             8    3     1       0.5159294979E-05       8    3    1         0.1341458249E-03      0.6400304500E-03

    ------------------------------------------------
       NWT REQUIRED           10 OUTER ITERATIONS 
       AND A TOTAL OF         16 INNER ITERATIONS.
    ------------------------------------------------

 NO OUTPUT CONTROL FOR STRESS PERIOD    6   TIME STEP   23
 
 SOLVING FOR HEAD 
                                                   Max.-Head-Change                         Max.-Flux-Residual
  Residual-Control   Outer-Iter.   Inner-Iter.     Column Row Layer    Maximum-Head-Change  Column Row Layer    Maximum-Flux-Residual          L2-NORM 
          0                 1           2             7    6     1      -0.2886155875E+00       7    6    1        -0.1573009468E+02      0.1585299593E+02
          0                 2           2             7    6     1       0.3170356241E+00       7    6    1         0.1745139903E+02      0.1745823190E+02
          0                 3           2             7    6     1      -0.1821193977E-01       7    6    1        -0.1012407863E+01      0.1034021647E+01
          0                 4           2             7    6     1      -0.3218278652E-02       7    6    1        -0.1787446004E+00      0.1960412462E+00
          0                 5           2             7    6     1      -0.5694263060E-03       7    6    1        -0.3160044196E-01      0.4754889978E-01
          0                 6           2             8    3     1       0.1269329613E-03       7    6    1        -0.5593471722E-02      0.1684837055E-01
          0                 7           1             8    3     1       0.5697078229E-04       8    3    1         0.1481237008E-02      0.7185276078E-02
          0                 8           1             8    3     1       0.2556958141E-04       8    3    1         0.6648155498E-03      0.3192019529E-02
          0                 9           1             8    3     1       0.1147595255E-04       8    3    1         0.2983812014E-03      0.1427820789E-02
          0                10           1             8    3     1       0.5150478439E-05       8    3    1         0.1339169155E-03      0.6394017112E-03

    ------------------------------------------------
       NWT REQUIRED           10 OUTER ITERATIONS 
       AND A TOTAL OF         16 INNER ITERATIONS.
    ------------------------------------------------

 NO OUTPUT CONTROL FOR STRESS PERIOD    6   TIME STEP   24
 
 SOLVING FOR HEAD 
                                                   Max.-Head-Change                         Max.-Flux-Residual
  Residual-Control   Outer-Iter.   Inner-Iter.     Column Row Layer    Maximum-Head-Change  Column Row Layer    Maximum-Flux-Residual          L2-NORM 
          0                 1           2             7    6     1      -0.2886088929E+00       7    6    1        -0.1572974463E+02      0.1585238211E+02
          0                 2           2             7    6     1       0.3170355687E+00       7    6    1         0.1745141181E+02      0.1745823609E+02
          0                 3           2             7    6     1      -0.1821108031E-01       7    6    1        -0.1012361638E+01      0.1033948909E+01
          0                 4           2             7    6     1      -0.3218119656E-02       7    6    1        -0.1787360274E+00      0.1960019931E+00
          0                 5           2             7    6     1      -0.5693969988E-03       7    6    1        -0.3159885811E-01      0.4752168580E-01
          0                 6           2             8    3     1       0.1267175269E-03       7    6    1        -0.5593180136E-02      0.1683347451E-01
          0                 7           1             8    3     1       0.5687391403E-04       8    3    1         0.1478722147E-02      0.7178317381E-02
          0                 8           1             8    3     1       0.2552602895E-04       8    3    1         0.6636847753E-03      0.3188884478E-02
          0                 9           1             8    3     1       0.1145637311E-04       8    3    1         0.2978728087E-03      0.1426417278E-02
          0                10           1             8    3     1       0.5141676907E-05       8    3    1         0.1336883592E-03      0.6387746246E-03

    ------------------------------------------------
       NWT REQUIRED           10 OUTER ITERATIONS 
       AND A TOTAL OF         16 INNER ITERATIONS.
    ------------------------------------------------

 NO OUTPUT CONTROL FOR STRESS PERIOD    6   TIME STEP   25
 
 SOLVING FOR HEAD 
                                                   Max.-Head-Change                         Max.-Flux-Residual
  Residual-Control   Outer-Iter.   Inner-Iter.     Column Row Layer    Maximum-Head-Change  Column Row Layer    Maximum-Flux-Residual          L2-NORM 
          0                 1           2             7    6     1      -0.2886026934E+00       7    6    1        -0.1572942156E+02      0.1585183096E+02
          0                 2           2             7    6     1       0.3170355209E+00       7    6    1         0.1745142498E+02      0.1745824085E+02
          0                 3           2             7    6     1      -0.1821030637E-01       7    6    1        -0.1012320136E+01      0.1033880943E+01
          0                 4           2             7    6     1      -0.3217975922E-02       7    6    1        -0.1787282970E+00      0.1959637316E+00
          0                 5           2             7    6     1      -0.5693704158E-03       7    6    1        -0.3159742463E-01      0.4749475254E-01
          0                 6           2             8    3     1       0.1265024289E-03       7    6    1        -0.5592915377E-02      0.1681868511E-01
          0                 7           1             8    3     1       0.5677721035E-04       8    3    1         0.1476211280E-02      0.7171404525E-02
          0                 8           1             8    3     1       0.2548255727E-04       8    3    1         0.6625559680E-03      0.3185769981E-02
          0                 9           1             8    3     1       0.1143683231E-04       8    3    1         0.2973653727E-03      0.1425022471E-02
          0                10           1             8    3     1       0.5132894257E-05       8    3    1         0.1334602719E-03      0.6381503259E-03

    ------------------------------------------------
       NWT REQUIRED           10 OUTER ITERATIONS 
       AND A TOTAL OF         16 INNER ITERATIONS.
    ------------------------------------------------

 NO OUTPUT CONTROL FOR STRESS PERIOD    6   TIME STEP   26
 
 SOLVING FOR HEAD 
                                                   Max.-Head-Change                         Max.-Flux-Residual
  Residual-Control   Outer-Iter.   Inner-Iter.     Column Row Layer    Maximum-Head-Change  Column Row Layer    Maximum-Flux-Residual          L2-NORM 
          0                 1           2             7    6     1      -0.2885968437E+00       7    6    1        -0.1572911752E+02      0.1585132725E+02
          0                 2           2             7    6     1       0.3170354684E+00       7    6    1         0.1745143786E+02      0.1745824547E+02
          0                 3           2             7    6     1      -0.1820958470E-01       7    6    1        -0.1012281511E+01      0.1033815744E+01
          0                 4           2             7    6     1      -0.3217841553E-02       7    6    1        -0.1787210824E+00      0.1959259145E+00
          0                 5           2             7    6     1      -0.5693455111E-03       7    6    1        -0.3159608358E-01      0.4746784827E-01
          0                 6           2             8    3     1       0.1262861714E-03       7    6    1        -0.5592667179E-02      0.1680387724E-01
          0                 7           1             8    3     1       0.5667999781E-04       8    3    1         0.1473686941E-02      0.7164480052E-02
          0                 8           1             8    3     1       0.2543886162E-04       8    3    1         0.6614212367E-03      0.3182649686E-02
          0                 9           1             8    3     1       0.1141719296E-04       8    3    1         0.2968553319E-03      0.1423624841E-02
          0                10           1             8    3     1       0.5124068214E-05       8    3    1         0.1332310419E-03      0.6375249973E-03

    ------------------------------------------------
       NWT REQUIRED           10 OUTER ITERATIONS 
       AND A TOTAL OF         16 INNER ITERATIONS.
    ------------------------------------------------

 NO OUTPUT CONTROL FOR STRESS PERIOD    6   TIME STEP   27
 
 SOLVING FOR HEAD 
                                                   Max.-Head-Change                         Max.-Flux-Residual
  Residual-Control   Outer-Iter.   Inner-Iter.     Column Row Layer    Maximum-Head-Change  Column Row Layer    Maximum-Flux-Residual          L2-NORM 
          0                 1           2             7    6     1      -0.2885912047E+00       7    6    1        -0.1572882509E+02      0.1585086075E+02
          0                 2           2             7    6     1       0.3170354003E+00       7    6    1         0.1745144982E+02      0.1745824921E+02
          0                 3           2             7    6     1      -0.1820888345E-01       7    6    1        -0.1012244003E+01      0.1033751747E+01
          0                 4           2             7    6     1      -0.3217710880E-02       7    6    1        -0.1787140701E+00      0.1958885142E+00
          0                 5           2             7    6     1      -0.5693212727E-03       7    6    1        -0.3159477909E-01      0.4744116416E-01
          0                 6           2             8    3     1       0.1260702822E-03       7    6    1        -0.5592425602E-02      0.1678917885E-01
          0                 7           1             8    3     1       0.5658295898E-04       8    3    1         0.1471166930E-02      0.7157605688E-02
          0                 8           1             8    3     1       0.2539524776E-04       8    3    1         0.6602885539E-03      0.3179552229E-02
          0                 9           1             8    3     1       0.1139759288E-04       8    3    1         0.2963462626E-03      0.1422237704E-02
          0                10           1             8    3     1       0.5115259803E-05       8    3    1         0.1330022592E-03      0.6369041417E-03

    ------------------------------------------------
       NWT REQUIRED           10 OUTER ITERATIONS 
       AND A TOTAL OF         16 INNER ITERATIONS.
    ------------------------------------------------

 NO OUTPUT CONTROL FOR STRESS PERIOD    6   TIME STEP   28
 
 SOLVING FOR HEAD 
                                                   Max.-Head-Change                         Max.-Flux-Residual
  Residual-Control   Outer-Iter.   Inner-Iter.     Column Row Layer    Maximum-Head-Change  Column Row Layer    Maximum-Flux-Residual          L2-NORM 
          0                 1           2             7    6     1      -0.2885858777E+00       7    6    1        -0.1572854971E+02      0.1585043464E+02
          0                 2           2             7    6     1       0.3170353282E+00       7    6    1         0.1745146152E+02      0.1745825282E+02
          0                 3           2             7    6     1      -0.1820822849E-01       7    6    1        -0.1012209045E+01      0.1033690308E+01
          0                 4           2             7    6     1      -0.3217588494E-02       7    6    1        -0.1787075145E+00      0.1958516376E+00
          0                 5           2             7    6     1      -0.5692985186E-03       7    6    1        -0.3159355636E-01      0.4741461532E-01
          0                 6           2             8    3     1       0.1258548168E-03       7    6    1        -0.5592198630E-02      0.1677452564E-01
          0                 7           1             8    3     1       0.5648612161E-04       8    3    1         0.1468651926E-02      0.7150749155E-02
          0                 8           1             8    3     1       0.2535172906E-04       8    3    1         0.6591582377E-03      0.3176461898E-02
          0                 9           1             8    3     1       0.1137803683E-04       8    3    1         0.2958383029E-03      0.1420853686E-02
          0                10           1             8    3     1       0.5106472777E-05       8    3    1         0.1327740034E-03      0.6362848547E-03

    ------------------------------------------------
       NWT REQUIRED           10 OUTER ITERATIONS 
       AND A TOTAL OF         16 INNER ITERATIONS.
    ------------------------------------------------

 NO OUTPUT CONTROL FOR STRESS PERIOD    6   TIME STEP   29
 
 SOLVING FOR HEAD 
                                                   Max.-Head-Change                         Max.-Flux-Residual
  Residual-Control   Outer-Iter.   Inner-Iter.     Column Row Layer    Maximum-Head-Change  Column Row Layer    Maximum-Flux-Residual          L2-NORM 
          0                 1           2             7    6     1      -0.2885809573E+00       7    6    1        -0.1572829657E+02      0.1585004926E+02
          0                 2           2             7    6     1       0.3170352634E+00       7    6    1         0.1745147359E+02      0.1745825688E+02
          0                 3           2             7    6     1      -0.1820764431E-01       7    6    1        -0.1012177999E+01      0.1033632775E+01
          0                 4           2             7    6     1      -0.3217478725E-02       7    6    1        -0.1787016558E+00      0.1958155326E+00
          0                 5           2             7    6     1      -0.5692780139E-03       7    6    1        -0.3159245788E-01      0.4738825795E-01
          0                 6           2             8    3     1       0.1256383379E-03       7    6    1        -0.5591993820E-02      0.1675993736E-01
          0                 7           1             8    3     1       0.5638884155E-04       8    3    1         0.1466125154E-02      0.7143919896E-02
          0                 8           1             8    3     1       0.2530801678E-04       8    3    1         0.6580227835E-03      0.3173383847E-02
          0                 9           1             8    3     1       0.1135839673E-04       8    3    1         0.2953281060E-03      0.1419475137E-02
          0                10           1             8    3     1       0.5097648984E-05       8    3    1         0.1325447714E-03      0.6356680420E-03

    ------------------------------------------------
       NWT REQUIRED           10 OUTER ITERATIONS 
       AND A TOTAL OF         16 INNER ITERATIONS.
    ------------------------------------------------

 NO OUTPUT CONTROL FOR STRESS PERIOD    6   TIME STEP   30



 STREAM LISTING     PERIOD      6   STEP       30

 LAYER ROW COL. STREAM  RCH.  FLOW INTO     FLOW TO   FLOW OUT OF   OVRLND.     DIRECT     STREAM       STREAM     STREAM     STREAM   STREAMBED  STREAMBED
                SEG.NO.  NO.  STRM. RCH.    AQUIFER    STRM. RCH.    RUNOFF     PRECIP       ET          HEAD       DEPTH      WIDTH   CONDCTNC.   GRADIENT

   1    1    1     1     1    9.9000E+01  4.7281E-09   9.9000E+01  0.000E+00  0.000E+00  0.000E+00  1.09484E+03  1.796E+00  2.191E+01  9.859E-10  1.599E+00
   1    2    2     1     2    9.9000E+01  7.3508E-09   9.9000E+01  0.000E+00  0.000E+00  0.000E+00  1.08985E+03  1.795E+00  2.190E+01  1.533E-09  1.598E+00
   1    3    3     1     3    9.9000E+01  6.3021E-09   9.9000E+01  0.000E+00  0.000E+00  0.000E+00  1.08421E+03  1.795E+00  2.190E+01  1.314E-09  1.598E+00
   1    3    4     1     4    9.9000E+01  5.8300E-09   9.9000E+01  0.000E+00  0.000E+00  0.000E+00  1.07920E+03  1.795E+00  2.191E+01  1.216E-09  1.598E+00
   1    4    5     2     1    9.7000E+01  4.4618E-01   9.6554E+01  0.000E+00  0.000E+00  0.000E+00  1.07465E+03  2.720E+00  1.200E+01  7.800E-02  1.907E+00
   1    5    6     2     2    9.6554E+01  3.4281E-01   9.6211E+01  0.000E+00  0.000E+00  0.000E+00  1.06922E+03  2.714E+00  1.200E+01  6.000E-02  1.905E+00
   1    6    6     2     3    9.6211E+01  3.4247E-01   9.5869E+01  0.000E+00  0.000E+00  0.000E+00  1.06450E+03  2.708E+00  1.200E+01  6.000E-02  1.903E+00
   1    7    6     2     4    9.5869E+01  3.4212E-01   9.5526E+01  0.000E+00  0.000E+00  0.000E+00  1.05978E+03  2.702E+00  1.200E+01  6.000E-02  1.901E+00
   1    8    6     2     5    9.5526E+01  3.4177E-01   9.5185E+01  0.000E+00  0.000E+00  0.000E+00  1.05505E+03  2.696E+00  1.200E+01  6.000E-02  1.899E+00
   1    3    5     3     1    2.0000E+00  2.8252E-01   1.7175E+00  0.000E+00  0.000E+00  0.000E+00  1.07555E+03  1.909E+00  9.636E+00  7.227E-02  1.955E+00
   1    3    6     3     2    1.7175E+00  2.4905E-01   1.4684E+00  0.000E+00  0.000E+00  0.000E+00  1.07264E+03  1.727E+00  8.909E+00  6.682E-02  1.864E+00
   1    3    7     3     3    1.4684E+00  1.9718E-01   1.2712E+00  0.000E+00  0.000E+00  0.000E+00  1.06987E+03  1.555E+00  8.218E+00  5.547E-02  1.777E+00
   1    4    8     3     4    1.2712E+00  2.2567E-01   1.0456E+00  0.000E+00  0.000E+00  0.000E+00  1.06682E+03  1.364E+00  7.455E+00  6.709E-02  1.682E+00
   1    5    8     3     5    1.0456E+00  1.5790E-01   8.8768E-01  0.000E+00  0.000E+00  0.000E+00  1.06362E+03  1.164E+00  6.655E+00  4.991E-02  1.582E+00
   1    6    8     3     6    8.8768E-01  5.5980E-02   8.3170E-01  0.000E+00  0.000E+00  0.000E+00  1.06158E+03  1.036E+00  6.145E+00  1.844E-02  1.518E+00
   1    5   10     4     1    1.0000E+01  9.0919E-02   9.9091E+00  0.000E+00  0.000E+00  0.000E+00  1.07836E+03  6.368E-01  1.000E+01  2.500E-02  1.212E+00
   1    5    9     4     2    9.9091E+00  1.8158E-01   9.7275E+00  0.000E+00  0.000E+00  0.000E+00  1.07154E+03  6.315E-01  1.000E+01  5.000E-02  1.211E+00
   1    6    8     4     3    9.7275E+00  1.2689E-01   9.6006E+00  0.000E+00  0.000E+00  0.000E+00  1.06381E+03  6.256E-01  1.000E+01  3.500E-02  1.209E+00
   1    6    8     5     1    1.0432E+01  2.2686E-09   1.0432E+01  0.000E+00  0.000E+00  0.000E+00  1.05868E+03  6.790E-01  1.542E+01  6.166E-10  1.226E+00
   1    7    7     5     2    1.0432E+01  2.8306E-09   1.0432E+01  0.000E+00  0.000E+00  0.000E+00  1.05418E+03  6.784E-01  1.539E+01  7.695E-10  1.226E+00
   1    8    7     5     3    1.0432E+01  1.9868E-09   1.0432E+01  0.000E+00  0.000E+00  0.000E+00  1.04993E+03  6.794E-01  1.543E+01  5.400E-10  1.226E+00
   1    8    6     5     4    1.0432E+01  1.4217E-09   1.0432E+01  0.000E+00  0.000E+00  0.000E+00  1.04693E+03  6.800E-01  1.545E+01  3.863E-10  1.227E+00
   1    9    6     6     1    1.0562E+02  3.5375E-01   1.0526E+02  0.000E+00  0.000E+00  0.000E+00  1.04562E+03  2.896E+00  1.200E+01  6.000E-02  1.965E+00
   1   10    7     6     2    1.0526E+02  3.5340E-01   1.0491E+02  0.000E+00  0.000E+00  0.000E+00  1.04107E+03  2.890E+00  1.200E+01  6.000E-02  1.963E+00
   1   11    7     6     3    1.0491E+02  3.5305E-01   1.0456E+02  0.000E+00  0.000E+00  0.000E+00  1.03652E+03  2.884E+00  1.200E+01  6.000E-02  1.961E+00
   1   12    7     6     4    1.0456E+02  3.5270E-01   1.0420E+02  0.000E+00  0.000E+00  0.000E+00  1.03197E+03  2.878E+00  1.200E+01  6.000E-02  1.959E+00
   1   13    7     6     5    1.0420E+02  1.4098E-01   1.0406E+02  0.000E+00  0.000E+00  0.000E+00  1.02878E+03  2.874E+00  1.200E+01  2.400E-02  1.958E+00
   1   14    9     7     1    1.5000E+02  2.9539E-08   1.5000E+02  0.000E+00  0.000E+00  0.000E+00  1.03986E+03  2.283E+00  5.528E+01  5.591E-09  1.761E+00
   1   13    8     7     2    1.5000E+02  3.2486E-14   1.5000E+02  0.000E+00  0.000E+00  0.000E+00  1.03478E+03  2.283E+00  5.527E+01  6.150E-15  1.761E+00
   1   13    7     7     3    1.5000E+02  2.9539E-08   1.5000E+02  0.000E+00  0.000E+00  0.000E+00  1.02970E+03  2.283E+00  5.528E+01  5.591E-09  1.761E+00
   1   13    6     8     1    2.5406E+02  3.2501E-08   2.5406E+02  0.000E+00  0.000E+00  0.000E+00  1.02530E+03  3.424E+00  4.965E+01  5.059E-09  2.141E+00
   1   13    5     8     2    2.5406E+02  3.2501E-08   2.5406E+02  0.000E+00  0.000E+00  0.000E+00  1.01905E+03  3.424E+00  4.965E+01  5.059E-09  2.141E+00
   1   13    4     8     3    2.5406E+02  0.0000E+00   2.5406E+02  0.000E+00  0.000E+00  0.000E+00  1.01281E+03  3.432E+00  4.977E+01  0.000E+00  1.815E+00
   1   13    3     8     4    2.5406E+02  7.9744E-10   2.5406E+02  0.000E+00  0.000E+00  0.000E+00  1.00656E+03  3.430E+00  4.974E+01  5.069E-10  5.244E-01
   1   13    2     8     5    2.5406E+02 -9.4698E-01   2.5501E+02  0.000E+00  0.000E+00  0.000E+00  1.00031E+03  3.435E+00  4.980E+01  5.075E+00 -6.220E-02
   1   13    1     8     6    2.5501E+02 -1.4751E+00   2.5649E+02  0.000E+00  0.000E+00  0.000E+00  9.95316E+02  3.441E+00  4.989E+01  3.050E+00 -1.612E-01
   1    6    8     9     1    0.0000E+00  0.0000E+00   0.0000E+00  0.000E+00  0.000E+00  0.000E+00  1.07850E+03  0.000E+00  4.000E+00  0.000E+00  1.000E+00





UNSATURATED ZONE PACKAGE VOLUMETRIC BUDGET FOR  TIME STEP    30 STRESS PERIOD    6
  ------------------------------------------------------------------------------



     CUMULATIVE VOLUMES      L**3       RATES FOR THIS TIME STEP      L**3/T
     ------------------                 ------------------------

           IN:                                      IN:
           ---                                      ---
        INFILTRATION =    13363380.0000          INFILTRATION =           0.8475

          OUT:                                     OUT:
          ----                                     ----
              UZF ET =   114884924.4442                UZF ET =          28.5615
        UZF RECHARGE =   376130067.9834          UZF RECHARGE =          27.6284

            IN - OUT =  -477651612.4276              IN - OUT =         -55.3424

          STORAGE:                                 STORAGE:
          --------                                 --------
      STORAGE CHANGE =  -477649172.7255        STORAGE CHANGE =         -55.3421

 PERCENT DISCREPANCY IS DIFFERENCE BETWEEN IN-OUT MINUS CHANGE IN STORAGE
 DIVIDED BY THE AVERAGE OF IN AND OUT TIMES 100

 PERCENT DISCREPANCY =          -0.00     PERCENT DISCREPANCY =          -0.00






1
  VOLUMETRIC BUDGET FOR ENTIRE MODEL AT END OF TIME STEP   30, STRESS PERIOD   6
  ------------------------------------------------------------------------------

     CUMULATIVE VOLUMES      L**3       RATES FOR THIS TIME STEP      L**3/T
     ------------------                 ------------------------

           IN:                                      IN:
           ---                                      ---
             STORAGE =     1906662.7500               STORAGE =           0.0000
       CONSTANT HEAD =           0.0000         CONSTANT HEAD =           0.0000
               WELLS =           0.0000                 WELLS =           0.0000
     HEAD DEP BOUNDS =    16722992.0000       HEAD DEP BOUNDS =           1.0474
      STREAM LEAKAGE =    61520920.0000        STREAM LEAKAGE =           4.9369
        UZF RECHARGE =   376130112.0000          UZF RECHARGE =          27.6284
               GW ET =           0.0000                 GW ET =           0.0000
     SURFACE LEAKAGE =           0.0000       SURFACE LEAKAGE =           0.0000

            TOTAL IN =   456280704.0000              TOTAL IN =          33.6128

          OUT:                                     OUT:
          ----                                     ----
             STORAGE =   407978432.0000               STORAGE =          30.4536
       CONSTANT HEAD =           0.0000         CONSTANT HEAD =           0.0000
               WELLS =           0.0000                 WELLS =           0.0000
     HEAD DEP BOUNDS =     4550409.5000       HEAD DEP BOUNDS =           0.2964
      STREAM LEAKAGE =    40029696.0000        STREAM LEAKAGE =           2.4221
        UZF RECHARGE =           0.0000          UZF RECHARGE =           0.0000
               GW ET =     3690435.0000                 GW ET =           0.4385
     SURFACE LEAKAGE =           0.0000       SURFACE LEAKAGE =           0.0000

           TOTAL OUT =   456248960.0000             TOTAL OUT =          33.6106

            IN - OUT =       31744.0000              IN - OUT =       2.1362E-03

 PERCENT DISCREPANCY =           0.01     PERCENT DISCREPANCY =           0.01






         TIME SUMMARY AT END OF TIME STEP   30 IN STRESS PERIOD    6
                    SECONDS     MINUTES      HOURS       DAYS        YEARS
                    -----------------------------------------------------------
   TIME STEP LENGTH  87600.      1460.0      24.333      1.0139     2.77588E-03
 STRESS PERIOD TIME 2.62800E+06  43800.      730.00      30.417     8.32763E-02
         TOTAL TIME 1.57680E+07 2.62800E+05  4380.0      182.50     0.49966    
1
1
                            STRESS PERIOD NO.    7, LENGTH =   2628000.    
                            -----------------------------------------------

                              NUMBER OF TIME STEPS =    30

                               MULTIPLIER FOR DELT =     1.000

                            INITIAL TIME STEP SIZE =   87600.00    

 WELL NO.  LAYER   ROW   COL   STRESS RATE         
 --------------------------------------------------
      1      1      6      4       0.000    
      2      1      6      7       0.000    
      3      1      7      4       0.000    
      4      1      7      5       0.000    
      5      1      8      4       0.000    
      6      1      8      5       0.000    
      7      1      9      4       0.000    
      8      1      9      5       0.000    
      9      1     10      4       0.000    
     10      1     10      5       0.000    

     10 WELLS

 REUSING NON-PARAMETER GHB CELLS FROM LAST STRESS PERIOD

      2 GHB CELLS

 REUSING STREAM SEGMENT DATA FROM LAST STRESS PERIOD



            AREAL INFILTRATION RATE
 READING ON UNIT   19 WITH FORMAT: (10F4.0)            

            1           2           3           4           5           6           7           8           9          10
 ........................................................................................................................
   1   1.0000E-10  2.0000E-10   0.000       0.000       0.000       0.000       0.000       0.000       0.000       0.000    
   2   2.0000E-10  1.0000E-10  2.0000E-10   0.000       0.000      8.0000E-10  8.0000E-10  5.0000E-10   0.000       0.000    
   3    0.000      5.0000E-10  1.0000E-10  1.0000E-10  8.0000E-10  8.0000E-10  5.0000E-10  5.0000E-10   0.000       0.000    
   4   8.0000E-10  5.0000E-10  1.0000E-10  1.0000E-10  1.0000E-10  1.0000E-10  1.0000E-10  1.0000E-10  2.0000E-10   0.000    
   5   8.0000E-10  5.0000E-10  1.0000E-10  1.0000E-10  1.0000E-10  1.0000E-10  1.0000E-10  1.0000E-10  1.0000E-10  1.0000E-10
   6   8.0000E-10  5.0000E-10  5.0000E-10  2.0000E-10  2.0000E-10  1.0000E-10  1.0000E-10  1.0000E-10  1.0000E-10  5.0000E-10
   7   8.0000E-10  5.0000E-10  5.0000E-10  2.0000E-10  2.0000E-10  1.0000E-10  1.0000E-10  2.0000E-10  2.0000E-10   0.000    
   8    0.000      5.0000E-10  5.0000E-10  2.0000E-10  2.0000E-10  1.0000E-10  1.0000E-10  2.0000E-10  5.0000E-10   0.000    
   9    0.000      5.0000E-10  5.0000E-10  2.0000E-10  2.0000E-10  1.0000E-10  1.0000E-10  2.0000E-10  5.0000E-10   0.000    
  10    0.000      5.0000E-10  5.0000E-10  2.0000E-10  2.0000E-10  1.0000E-10  1.0000E-10  2.0000E-10  5.0000E-10  8.0000E-10
  11    0.000      1.0000E-10  1.0000E-10  1.0000E-10  1.0000E-10  1.0000E-10  1.0000E-10  2.0000E-10  5.0000E-10   0.000    
  12   1.0000E-10  1.0000E-10  1.0000E-10  1.0000E-10  1.0000E-10  1.0000E-10  1.0000E-10  1.0000E-10  2.0000E-10   0.000    
  13   1.0000E-10  1.0000E-10  2.0000E-10  2.0000E-10  2.0000E-10  2.0000E-10  2.0000E-10  1.0000E-10  1.0000E-10   0.000    
  14    0.000      2.0000E-10  5.0000E-10  5.0000E-10  5.0000E-10  5.0000E-10  5.0000E-10  2.0000E-10  1.0000E-10   0.000    
  15    0.000       0.000      8.0000E-10  8.0000E-10  8.0000E-10  8.0000E-10   0.000       0.000       0.000       0.000    

                  ET RATE =  3.000000E-08

 USING ET EXTINCTION DEPTH FROM PREVIOUS STRESS PERIOD. CURRENT PERIOD IS:       7

 USING EXTINCTION WATER CONTENT FROM PREVIOUS STRESS PERIOD. CURRENT PERIOD IS:       7
 
 SOLVING FOR HEAD 
                                                   Max.-Head-Change                         Max.-Flux-Residual
  Residual-Control   Outer-Iter.   Inner-Iter.     Column Row Layer    Maximum-Head-Change  Column Row Layer    Maximum-Flux-Residual          L2-NORM 
          0                 1           2             7    6     1      -0.2885818265E+00       7    6    1        -0.1572805161E+02      0.1586953810E+02
          0                 2           2             7    6     1       0.3170332810E+00       7    6    1         0.1745143940E+02      0.1745828850E+02
          0                 3           2             7    6     1      -0.1820817902E-01       7    6    1        -0.1012199238E+01      0.1033546828E+01
          0                 4           2             7    6     1      -0.3217615319E-02       7    6    1        -0.1787077702E+00      0.1957653217E+00
          0                 5           2             7    6     1      -0.5693094866E-03       7    6    1        -0.3159394949E-01      0.4735110550E-01
          0                 6           2             8    3     1       0.1254224663E-03       7    6    1        -0.5592329046E-02      0.1673906976E-01
          0                 7           1             8    3     1       0.5629184999E-04       8    3    1         0.1463605541E-02      0.7134122677E-02
          0                 8           1             8    3     1       0.2526444181E-04       8    3    1         0.6568907386E-03      0.3168971872E-02
          0                 9           1             8    3     1       0.1133882104E-04       8    3    1         0.2948195180E-03      0.1417502761E-02
          0                10           1             8    3     1       0.5088855330E-05       8    3    1         0.1323162956E-03      0.6347878258E-03

    ------------------------------------------------
       NWT REQUIRED           10 OUTER ITERATIONS 
       AND A TOTAL OF         16 INNER ITERATIONS.
    ------------------------------------------------

 NO OUTPUT CONTROL FOR STRESS PERIOD    7   TIME STEP    1
 
 SOLVING FOR HEAD 
                                                   Max.-Head-Change                         Max.-Flux-Residual
  Residual-Control   Outer-Iter.   Inner-Iter.     Column Row Layer    Maximum-Head-Change  Column Row Layer    Maximum-Flux-Residual          L2-NORM 
          0                 1           2             7    6     1      -0.2885878910E+00       7    6    1        -0.1572820413E+02      0.1588594895E+02
          0                 2           2             7    6     1       0.3170317682E+00       7    6    1         0.1745140769E+02      0.1745840956E+02
          0                 3           2             7    6     1      -0.1820926774E-01       7    6    1        -0.1012254327E+01      0.1033532243E+01
          0                 4           2             7    6     1      -0.3217834679E-02       7    6    1        -0.1787190171E+00      0.1957229672E+00
          0                 5           2             7    6     1      -0.5693529543E-03       7    6    1        -0.3159620030E-01      0.4731356584E-01
          0                 6           2             8    3     1       0.1252070498E-03       7    6    1        -0.5592772285E-02      0.1671748941E-01
          0                 7           1             8    3     1       0.5619506414E-04       8    3    1         0.1461091252E-02      0.7123964856E-02
          0                 8           1             8    3     1       0.2522095888E-04       8    3    1         0.6557610829E-03      0.3164397523E-02
          0                 9           1             8    3     1       0.1131928674E-04       8    3    1         0.2943120064E-03      0.1415458197E-02
          0                10           1             8    3     1       0.5080080559E-05       8    3    1         0.1320883074E-03      0.6338749352E-03

    ------------------------------------------------
       NWT REQUIRED           10 OUTER ITERATIONS 
       AND A TOTAL OF         16 INNER ITERATIONS.
    ------------------------------------------------

 NO OUTPUT CONTROL FOR STRESS PERIOD    7   TIME STEP    2
 
 SOLVING FOR HEAD 
                                                   Max.-Head-Change                         Max.-Flux-Residual
  Residual-Control   Outer-Iter.   Inner-Iter.     Column Row Layer    Maximum-Head-Change  Column Row Layer    Maximum-Flux-Residual          L2-NORM 
          0                 1           2             7    6     1      -0.2885945975E+00       7    6    1        -0.1572858680E+02      0.1588024769E+02
          0                 2           2             7    6     1       0.3170313111E+00       7    6    1         0.1745139565E+02      0.1745833359E+02
          0                 3           2             7    6     1      -0.1821020045E-01       7    6    1        -0.1012306658E+01      0.1033533055E+01
          0                 4           2             7    6     1      -0.3217997368E-02       7    6    1        -0.1787281418E+00      0.1956863263E+00
          0                 5           2             7    6     1      -0.5693813526E-03       7    6    1        -0.3159779212E-01      0.4727770927E-01
          0                 6           2             8    3     1       0.1249907594E-03       7    6    1        -0.5593050157E-02      0.1669669512E-01
          0                 7           1             8    3     1       0.5609789863E-04       8    3    1         0.1458566823E-02      0.7114171566E-02
          0                 8           1             8    3     1       0.2517731200E-04       8    3    1         0.6546270434E-03      0.3159986592E-02
          0                 9           1             8    3     1       0.1129968166E-04       8    3    1         0.2938025972E-03      0.1413485963E-02
          0                10           1             8    3     1       0.5071275150E-05       8    3    1         0.1318594948E-03      0.6329937994E-03

    ------------------------------------------------
       NWT REQUIRED           10 OUTER ITERATIONS 
       AND A TOTAL OF         16 INNER ITERATIONS.
    ------------------------------------------------

 NO OUTPUT CONTROL FOR STRESS PERIOD    7   TIME STEP    3
 
 SOLVING FOR HEAD 
                                                   Max.-Head-Change                         Max.-Flux-Residual
  Residual-Control   Outer-Iter.   Inner-Iter.     Column Row Layer    Maximum-Head-Change  Column Row Layer    Maximum-Flux-Residual          L2-NORM 
          0                 1           2             7    6     1      -0.2886009101E+00       7    6    1        -0.1572894812E+02      0.1587538521E+02
          0                 2           2             7    6     1       0.3170308623E+00       7    6    1         0.1745138410E+02      0.1745826385E+02
          0                 3           2             7    6     1      -0.1821107658E-01       7    6    1        -0.1012355875E+01      0.1033532647E+01
          0                 4           2             7    6     1      -0.3218149912E-02       7    6    1        -0.1787367078E+00      0.1956503297E+00
          0                 5           2             7    6     1      -0.5694079339E-03       7    6    1        -0.3159928383E-01      0.4724268207E-01
          0                 6           2             8    3     1       0.1247750847E-03       7    6    1        -0.5593310115E-02      0.1667638945E-01
          0                 7           1             8    3     1       0.5600101786E-04       8    3    1         0.1456049618E-02      0.7104606606E-02
          0                 8           1             8    3     1       0.2513379580E-04       8    3    1         0.6534963314E-03      0.3155677696E-02
          0                 9           1             8    3     1       0.1128013686E-04       8    3    1         0.2932947221E-03      0.1411559067E-02
          0                10           1             8    3     1       0.5062496878E-05       8    3    1         0.1316313878E-03      0.6321329482E-03

    ------------------------------------------------
       NWT REQUIRED           10 OUTER ITERATIONS 
       AND A TOTAL OF         16 INNER ITERATIONS.
    ------------------------------------------------

 NO OUTPUT CONTROL FOR STRESS PERIOD    7   TIME STEP    4
 
 SOLVING FOR HEAD 
                                                   Max.-Head-Change                         Max.-Flux-Residual
  Residual-Control   Outer-Iter.   Inner-Iter.     Column Row Layer    Maximum-Head-Change  Column Row Layer    Maximum-Flux-Residual          L2-NORM 
          0                 1           2             7    6     1      -0.2886067317E+00       7    6    1        -0.1572928297E+02      0.1587124861E+02
          0                 2           2             7    6     1       0.3170304107E+00       7    6    1         0.1745137240E+02      0.1745820083E+02
          0                 3           2             7    6     1      -0.1821187054E-01       7    6    1        -0.1012400563E+01      0.1033529894E+01
          0                 4           2             7    6     1      -0.3218287764E-02       7    6    1        -0.1787444636E+00      0.1956148795E+00
          0                 5           2             7    6     1      -0.5694318930E-03       7    6    1        -0.3160063072E-01      0.4720859696E-01
          0                 6           2             8    3     1       0.1245600461E-03       7    6    1        -0.5593544287E-02      0.1665666119E-01
          0                 7           1             8    3     1       0.5590442973E-04       8    3    1         0.1453539875E-02      0.7095320496E-02
          0                 8           1             8    3     1       0.2509041454E-04       8    3    1         0.6523690538E-03      0.3151497200E-02
          0                 9           1             8    3     1       0.1126065384E-04       8    3    1         0.2927884221E-03      0.1409691046E-02
          0                10           1             8    3     1       0.5053747368E-05       8    3    1         0.1314040013E-03      0.6312997841E-03

    ------------------------------------------------
       NWT REQUIRED           10 OUTER ITERATIONS 
       AND A TOTAL OF         16 INNER ITERATIONS.
    ------------------------------------------------

 OUTPUT CONTROL FOR STRESS PERIOD    7   TIME STEP    5
    PRINT BUDGET
    SAVE BUDGET
 UBUDSV SAVING "         STORAGE" ON UNIT102 AT TIME STEP     5, STRESS PERIOD    7
 UBUDSV SAVING "   CONSTANT HEAD" ON UNIT102 AT TIME STEP     5, STRESS PERIOD    7
 UBUDSV SAVING "FLOW RIGHT FACE " ON UNIT102 AT TIME STEP     5, STRESS PERIOD    7
 UBUDSV SAVING "FLOW FRONT FACE " ON UNIT102 AT TIME STEP     5, STRESS PERIOD    7

  HEAD DEP BOUNDS   PERIOD    7   STEP     5
 BOUNDARY      1   LAYER   1   ROW    13   COL     1   RATE   -0.294313    
 BOUNDARY      2   LAYER   1   ROW    14   COL     9   RATE     1.04664    



 STREAM LISTING     PERIOD      7   STEP        5

 LAYER ROW COL. STREAM  RCH.  FLOW INTO     FLOW TO   FLOW OUT OF   OVRLND.     DIRECT     STREAM       STREAM     STREAM     STREAM   STREAMBED  STREAMBED
                SEG.NO.  NO.  STRM. RCH.    AQUIFER    STRM. RCH.    RUNOFF     PRECIP       ET          HEAD       DEPTH      WIDTH   CONDCTNC.   GRADIENT

   1    1    1     1     1    6.3000E+01  3.8236E-09   6.3000E+01  0.000E+00  0.000E+00  0.000E+00  1.09461E+03  1.562E+00  1.863E+01  8.382E-10  1.521E+00
   1    2    2     1     2    6.3000E+01  5.9422E-09   6.3000E+01  0.000E+00  0.000E+00  0.000E+00  1.08962E+03  1.560E+00  1.861E+01  1.303E-09  1.520E+00
   1    3    3     1     3    6.3000E+01  5.0953E-09   6.3000E+01  0.000E+00  0.000E+00  0.000E+00  1.08398E+03  1.561E+00  1.862E+01  1.117E-09  1.520E+00
   1    3    4     1     4    6.3000E+01  4.7139E-09   6.3000E+01  0.000E+00  0.000E+00  0.000E+00  1.07897E+03  1.561E+00  1.862E+01  1.034E-09  1.520E+00
   1    4    5     2     1    6.1000E+01  3.9454E-01   6.0605E+01  0.000E+00  0.000E+00  0.000E+00  1.07399E+03  2.058E+00  1.200E+01  7.800E-02  1.686E+00
   1    5    6     2     2    6.0605E+01  3.0307E-01   6.0302E+01  0.000E+00  0.000E+00  0.000E+00  1.06856E+03  2.051E+00  1.200E+01  6.000E-02  1.684E+00
   1    6    6     2     3    6.0302E+01  3.0270E-01   6.0000E+01  0.000E+00  0.000E+00  0.000E+00  1.06384E+03  2.045E+00  1.200E+01  6.000E-02  1.682E+00
   1    7    6     2     4    6.0000E+01  3.0233E-01   5.9697E+01  0.000E+00  0.000E+00  0.000E+00  1.05911E+03  2.039E+00  1.200E+01  6.000E-02  1.680E+00
   1    8    6     2     5    5.9697E+01  3.0196E-01   5.9395E+01  0.000E+00  0.000E+00  0.000E+00  1.05439E+03  2.033E+00  1.200E+01  6.000E-02  1.678E+00
   1    3    5     3     1    2.0000E+00  2.8252E-01   1.7175E+00  0.000E+00  0.000E+00  0.000E+00  1.07555E+03  1.909E+00  9.636E+00  7.227E-02  1.955E+00
   1    3    6     3     2    1.7175E+00  2.4905E-01   1.4684E+00  0.000E+00  0.000E+00  0.000E+00  1.07264E+03  1.727E+00  8.909E+00  6.682E-02  1.864E+00
   1    3    7     3     3    1.4684E+00  1.9718E-01   1.2712E+00  0.000E+00  0.000E+00  0.000E+00  1.06987E+03  1.555E+00  8.218E+00  5.547E-02  1.777E+00
   1    4    8     3     4    1.2712E+00  2.2567E-01   1.0456E+00  0.000E+00  0.000E+00  0.000E+00  1.06682E+03  1.364E+00  7.455E+00  6.709E-02  1.682E+00
   1    5    8     3     5    1.0456E+00  1.5790E-01   8.8768E-01  0.000E+00  0.000E+00  0.000E+00  1.06362E+03  1.164E+00  6.655E+00  4.991E-02  1.582E+00
   1    6    8     3     6    8.8768E-01  5.5980E-02   8.3170E-01  0.000E+00  0.000E+00  0.000E+00  1.06158E+03  1.036E+00  6.145E+00  1.844E-02  1.518E+00
   1    5   10     4     1    1.0000E+01  9.0919E-02   9.9091E+00  0.000E+00  0.000E+00  0.000E+00  1.07836E+03  6.368E-01  1.000E+01  2.500E-02  1.212E+00
   1    5    9     4     2    9.9091E+00  1.8158E-01   9.7275E+00  0.000E+00  0.000E+00  0.000E+00  1.07154E+03  6.315E-01  1.000E+01  5.000E-02  1.211E+00
   1    6    8     4     3    9.7275E+00  1.2689E-01   9.6006E+00  0.000E+00  0.000E+00  0.000E+00  1.06381E+03  6.256E-01  1.000E+01  3.500E-02  1.209E+00
   1    6    8     5     1    1.0432E+01  2.2686E-09   1.0432E+01  0.000E+00  0.000E+00  0.000E+00  1.05868E+03  6.790E-01  1.542E+01  6.166E-10  1.226E+00
   1    7    7     5     2    1.0432E+01  2.8306E-09   1.0432E+01  0.000E+00  0.000E+00  0.000E+00  1.05418E+03  6.784E-01  1.539E+01  7.695E-10  1.226E+00
   1    8    7     5     3    1.0432E+01  1.9868E-09   1.0432E+01  0.000E+00  0.000E+00  0.000E+00  1.04993E+03  6.794E-01  1.543E+01  5.400E-10  1.226E+00
   1    8    6     5     4    1.0432E+01  1.4217E-09   1.0432E+01  0.000E+00  0.000E+00  0.000E+00  1.04693E+03  6.800E-01  1.545E+01  3.863E-10  1.227E+00
   1    9    6     6     1    6.9828E+01  3.1550E-01   6.9512E+01  0.000E+00  0.000E+00  0.000E+00  1.04499E+03  2.258E+00  1.200E+01  6.000E-02  1.753E+00
   1   10    7     6     2    6.9512E+01  3.1513E-01   6.9197E+01  0.000E+00  0.000E+00  0.000E+00  1.04043E+03  2.252E+00  1.200E+01  6.000E-02  1.751E+00
   1   11    7     6     3    6.9197E+01  3.1477E-01   6.8882E+01  0.000E+00  0.000E+00  0.000E+00  1.03588E+03  2.246E+00  1.200E+01  6.000E-02  1.749E+00
   1   12    7     6     4    6.8882E+01  3.1440E-01   6.8568E+01  0.000E+00  0.000E+00  0.000E+00  1.03133E+03  2.240E+00  1.200E+01  6.000E-02  1.747E+00
   1   13    7     6     5    6.8568E+01  1.2566E-01   6.8442E+01  0.000E+00  0.000E+00  0.000E+00  1.02814E+03  2.236E+00  1.200E+01  2.400E-02  1.745E+00
   1   14    9     7     1    1.5000E+02  2.9539E-08   1.5000E+02  0.000E+00  0.000E+00  0.000E+00  1.03986E+03  2.283E+00  5.528E+01  5.591E-09  1.761E+00
   1   13    8     7     2    1.5000E+02  3.2486E-14   1.5000E+02  0.000E+00  0.000E+00  0.000E+00  1.03478E+03  2.283E+00  5.527E+01  6.150E-15  1.761E+00
   1   13    7     7     3    1.5000E+02  2.9539E-08   1.5000E+02  0.000E+00  0.000E+00  0.000E+00  1.02970E+03  2.283E+00  5.528E+01  5.591E-09  1.761E+00
   1   13    6     8     1    2.1844E+02  2.9803E-19   2.1844E+02  0.000E+00  0.000E+00  0.000E+00  1.02511E+03  3.235E+00  4.691E+01  4.780E-20  2.078E+00
   1   13    5     8     2    2.1844E+02  2.9803E-19   2.1844E+02  0.000E+00  0.000E+00  0.000E+00  1.01886E+03  3.235E+00  4.691E+01  4.780E-20  2.078E+00
   1   13    4     8     3    2.1844E+02  2.5103E-32   2.1844E+02  0.000E+00  0.000E+00  0.000E+00  1.01262E+03  3.243E+00  4.703E+01  4.792E-33  1.746E+00
   1   13    3     8     4    2.1844E+02  6.6756E-10   2.1844E+02  0.000E+00  0.000E+00  0.000E+00  1.00637E+03  3.241E+00  4.700E+01  4.789E-10  4.646E-01
   1   13    2     8     5    2.1844E+02 -1.4930E+00   2.1994E+02  0.000E+00  0.000E+00  0.000E+00  1.00012E+03  3.247E+00  4.709E+01  4.798E+00 -1.037E-01
   1   13    1     8     6    2.1994E+02 -1.7716E+00   2.2171E+02  0.000E+00  0.000E+00  0.000E+00  9.95131E+02  3.256E+00  4.722E+01  2.887E+00 -2.045E-01
   1    6    8     9     1    6.5684E-08  0.0000E+00   6.5684E-08  0.000E+00  0.000E+00  0.000E+00  1.07850E+03  7.067E-06  4.000E+00  0.000E+00  1.000E+00



 UBDSV3 SAVING "     NETRECHARGE" ON UNIT 100 AT TIME STEP     5, STRESS PERIOD   7
 UBDSV3 SAVING "    NETDISCHARGE" ON UNIT 101 AT TIME STEP     5, STRESS PERIOD   7
 UBDSV3 SAVING "           GW ET" ON UNIT  61 AT TIME STEP     5, STRESS PERIOD   7
 UBDSV3 SAVING "    UZF RECHARGE" ON UNIT  61 AT TIME STEP     5, STRESS PERIOD   7
 UBDSV3 SAVING " SURFACE LEAKAGE" ON UNIT  61 AT TIME STEP     5, STRESS PERIOD   7
 UBDSV3 SAVING "       HORT+DUNN" ON UNIT  61 AT TIME STEP     5, STRESS PERIOD   7
 UBDSV3 SAVING "  STORAGE CHANGE" ON UNIT  61 AT TIME STEP     5, STRESS PERIOD   7


UNSATURATED ZONE PACKAGE VOLUMETRIC BUDGET FOR  TIME STEP     5 STRESS PERIOD    7
  ------------------------------------------------------------------------------



     CUMULATIVE VOLUMES      L**3       RATES FOR THIS TIME STEP      L**3/T
     ------------------                 ------------------------

           IN:                                      IN:
           ---                                      ---
        INFILTRATION =    13734585.0287          INFILTRATION =           0.8475

          OUT:                                     OUT:
          ----                                     ----
              UZF ET =   152414775.2704                UZF ET =          85.6853
        UZF RECHARGE =   388127095.7422          UZF RECHARGE =          27.3567

            IN - OUT =  -526807285.9839              IN - OUT =        -112.1945

          STORAGE:                                 STORAGE:
          --------                                 --------
      STORAGE CHANGE =  -526804848.2718        STORAGE CHANGE =        -112.1945

 PERCENT DISCREPANCY IS DIFFERENCE BETWEEN IN-OUT MINUS CHANGE IN STORAGE
 DIVIDED BY THE AVERAGE OF IN AND OUT TIMES 100

 PERCENT DISCREPANCY =          -0.00     PERCENT DISCREPANCY =           0.00






1
  VOLUMETRIC BUDGET FOR ENTIRE MODEL AT END OF TIME STEP    5, STRESS PERIOD   7
  ------------------------------------------------------------------------------

     CUMULATIVE VOLUMES      L**3       RATES FOR THIS TIME STEP      L**3/T
     ------------------                 ------------------------

           IN:                                      IN:
           ---                                      ---
             STORAGE =     2538891.2500               STORAGE =           1.3353
       CONSTANT HEAD =           0.0000         CONSTANT HEAD =           0.0000
               WELLS =           0.0000                 WELLS =           0.0000
     HEAD DEP BOUNDS =    17181556.0000       HEAD DEP BOUNDS =           1.0466
      STREAM LEAKAGE =    63530048.0000        STREAM LEAKAGE =           4.5577
        UZF RECHARGE =   388127104.0000          UZF RECHARGE =          27.3567
               GW ET =           0.0000                 GW ET =           0.0000
     SURFACE LEAKAGE =           0.0000       SURFACE LEAKAGE =           0.0000

            TOTAL IN =   471377600.0000              TOTAL IN =          34.2963

          OUT:                                     OUT:
          ----                                     ----
             STORAGE =   420902112.0000               STORAGE =          29.4206
       CONSTANT HEAD =           0.0000         CONSTANT HEAD =           0.0000
               WELLS =           0.0000                 WELLS =           0.0000
     HEAD DEP BOUNDS =     4679680.5000       HEAD DEP BOUNDS =           0.2943
      STREAM LEAKAGE =    41496616.0000        STREAM LEAKAGE =           3.2646
        UZF RECHARGE =           0.0000          UZF RECHARGE =           0.0000
               GW ET =     4266579.5000                 GW ET =           1.3147
     SURFACE LEAKAGE =           0.0000       SURFACE LEAKAGE =           0.0000

           TOTAL OUT =   471344992.0000             TOTAL OUT =          34.2942

            IN - OUT =       32608.0000              IN - OUT =       2.1172E-03

 PERCENT DISCREPANCY =           0.01     PERCENT DISCREPANCY =           0.01






         TIME SUMMARY AT END OF TIME STEP    5 IN STRESS PERIOD    7
                    SECONDS     MINUTES      HOURS       DAYS        YEARS
                    -----------------------------------------------------------
   TIME STEP LENGTH  87600.      1460.0      24.333      1.0139     2.77588E-03
 STRESS PERIOD TIME 4.38000E+05  7300.0      121.67      5.0694     1.38794E-02
         TOTAL TIME 1.62060E+07 2.70100E+05  4501.7      187.57     0.51354    
1
 
 SOLVING FOR HEAD 
                                                   Max.-Head-Change                         Max.-Flux-Residual
  Residual-Control   Outer-Iter.   Inner-Iter.     Column Row Layer    Maximum-Head-Change  Column Row Layer    Maximum-Flux-Residual          L2-NORM 
          0                 1           2             7    6     1      -0.2886119729E+00       7    6    1        -0.1572958634E+02      0.1586772296E+02
          0                 2           2             7    6     1       0.3170299443E+00       7    6    1         0.1745135991E+02      0.1745814306E+02
          0                 3           2             7    6     1      -0.1821255886E-01       7    6    1        -0.1012439415E+01      0.1033523289E+01
          0                 4           2             7    6     1      -0.3218406773E-02       7    6    1        -0.1787511787E+00      0.1955794913E+00
          0                 5           2             7    6     1      -0.5694524881E-03       7    6    1        -0.3160179196E-01      0.4717515142E-01
          0                 6           2             8    3     1       0.1243442251E-03       7    6    1        -0.5593745275E-02      0.1663733067E-01
          0                 7           1             8    3     1       0.5580750220E-04       8    3    1         0.1451021055E-02      0.7086216135E-02
          0                 8           1             8    3     1       0.2504688559E-04       8    3    1         0.6512378299E-03      0.3147394864E-02
          0                 9           1             8    3     1       0.1124110653E-04       8    3    1         0.2922804079E-03      0.1407856162E-02
          0                10           1             8    3     1       0.5044969846E-05       8    3    1         0.1311758749E-03      0.6304795777E-03

    ------------------------------------------------
       NWT REQUIRED           10 OUTER ITERATIONS 
       AND A TOTAL OF         16 INNER ITERATIONS.
    ------------------------------------------------

 NO OUTPUT CONTROL FOR STRESS PERIOD    7   TIME STEP    6
 
 SOLVING FOR HEAD 
                                                   Max.-Head-Change                         Max.-Flux-Residual
  Residual-Control   Outer-Iter.   Inner-Iter.     Column Row Layer    Maximum-Head-Change  Column Row Layer    Maximum-Flux-Residual          L2-NORM 
          0                 1           2             7    6     1      -0.2886169013E+00       7    6    1        -0.1572987259E+02      0.1586471608E+02
          0                 2           2             7    6     1       0.3170294861E+00       7    6    1         0.1745134794E+02      0.1745809095E+02
          0                 3           2             7    6     1      -0.1821320442E-01       7    6    1        -0.1012475912E+01      0.1033516116E+01
          0                 4           2             7    6     1      -0.3218518124E-02       7    6    1        -0.1787574719E+00      0.1955448047E+00
          0                 5           2             7    6     1      -0.5694717131E-03       7    6    1        -0.3160287767E-01      0.4714255819E-01
          0                 6           2             8    3     1       0.1241290460E-03       7    6    1        -0.5593932766E-02      0.1661853151E-01
          0                 7           1             8    3     1       0.5571086442E-04       8    3    1         0.1448509736E-02      0.7077378039E-02
          0                 8           1             8    3     1       0.2500348758E-04       8    3    1         0.6501100050E-03      0.3143421404E-02
          0                 9           1             8    3     1       0.1122161863E-04       8    3    1         0.2917739370E-03      0.1406083716E-02
          0                10           1             8    3     1       0.5036219711E-05       8    3    1         0.1309484503E-03      0.6296893527E-03

    ------------------------------------------------
       NWT REQUIRED           10 OUTER ITERATIONS 
       AND A TOTAL OF         16 INNER ITERATIONS.
    ------------------------------------------------

 NO OUTPUT CONTROL FOR STRESS PERIOD    7   TIME STEP    7
 
 SOLVING FOR HEAD 
                                                   Max.-Head-Change                         Max.-Flux-Residual
  Residual-Control   Outer-Iter.   Inner-Iter.     Column Row Layer    Maximum-Head-Change  Column Row Layer    Maximum-Flux-Residual          L2-NORM 
          0                 1           2             7    6     1      -0.2886214201E+00       7    6    1        -0.1573013657E+02      0.1586214495E+02
          0                 2           2             7    6     1       0.3170290251E+00       7    6    1         0.1745133585E+02      0.1745804293E+02
          0                 3           2             7    6     1      -0.1821378212E-01       7    6    1        -0.1012508666E+01      0.1033506712E+01
          0                 4           2             7    6     1      -0.3218617353E-02       7    6    1        -0.1787630962E+00      0.1955104083E+00
          0                 5           2             7    6     1      -0.5694887732E-03       7    6    1        -0.3160384393E-01      0.4711055096E-01
          0                 6           2             8    3     1       0.1239131686E-03       7    6    1        -0.5594098925E-02      0.1660005604E-01
          0                 7           1             8    3     1       0.5561392725E-04       8    3    1         0.1445990333E-02      0.7068677990E-02
          0                 8           1             8    3     1       0.2495996138E-04       8    3    1         0.6489787003E-03      0.3139500741E-02
          0                 9           1             8    3     1       0.1120207545E-04       8    3    1         0.2912659635E-03      0.1404329280E-02
          0                10           1             8    3     1       0.5027445065E-05       8    3    1         0.1307203727E-03      0.6289056853E-03

    ------------------------------------------------
       NWT REQUIRED           10 OUTER ITERATIONS 
       AND A TOTAL OF         16 INNER ITERATIONS.
    ------------------------------------------------

 NO OUTPUT CONTROL FOR STRESS PERIOD    7   TIME STEP    8
 
 SOLVING FOR HEAD 
                                                   Max.-Head-Change                         Max.-Flux-Residual
  Residual-Control   Outer-Iter.   Inner-Iter.     Column Row Layer    Maximum-Head-Change  Column Row Layer    Maximum-Flux-Residual          L2-NORM 
          0                 1           2             7    6     1      -0.2886255518E+00       7    6    1        -0.1573037960E+02      0.1585995099E+02
          0                 2           2             7    6     1       0.3170285620E+00       7    6    1         0.1745132365E+02      0.1745799881E+02
          0                 3           2             7    6     1      -0.1821429543E-01       7    6    1        -0.1012537869E+01      0.1033495361E+01
          0                 4           2             7    6     1      -0.3218705072E-02       7    6    1        -0.1787680857E+00      0.1954763241E+00
          0                 5           2             7    6     1      -0.5695037762E-03       7    6    1        -0.3160469672E-01      0.4707915127E-01
          0                 6           2             8    3     1       0.1236980791E-03       7    6    1        -0.5594244807E-02      0.1658195170E-01
          0                 7           1             8    3     1       0.5551735100E-04       8    3    1         0.1443480163E-02      0.7060151377E-02
          0                 8           1             8    3     1       0.2491660038E-04       8    3    1         0.6478516345E-03      0.3135658044E-02
          0                 9           1             8    3     1       0.1118260831E-04       8    3    1         0.2907599381E-03      0.1402610357E-02
          0                10           1             8    3     1       0.5018705685E-05       8    3    1         0.1304931895E-03      0.6281378021E-03

    ------------------------------------------------
       NWT REQUIRED           10 OUTER ITERATIONS 
       AND A TOTAL OF         16 INNER ITERATIONS.
    ------------------------------------------------

 NO OUTPUT CONTROL FOR STRESS PERIOD    7   TIME STEP    9
 
 SOLVING FOR HEAD 
                                                   Max.-Head-Change                         Max.-Flux-Residual
  Residual-Control   Outer-Iter.   Inner-Iter.     Column Row Layer    Maximum-Head-Change  Column Row Layer    Maximum-Flux-Residual          L2-NORM 
          0                 1           2             7    6     1      -0.2886293220E+00       7    6    1        -0.1573060279E+02      0.1585806396E+02
          0                 2           2             7    6     1       0.3170280957E+00       7    6    1         0.1745131135E+02      0.1745795680E+02
          0                 3           2             7    6     1      -0.1821474925E-01       7    6    1        -0.1012563786E+01      0.1033481337E+01
          0                 4           2             7    6     1      -0.3218782184E-02       7    6    1        -0.1787724892E+00      0.1954423507E+00
          0                 5           2             7    6     1      -0.5695168877E-03       7    6    1        -0.3160544502E-01      0.4704825339E-01
          0                 6           2             8    3     1       0.1234837412E-03       7    6    1        -0.5594372077E-02      0.1656416159E-01
          0                 7           1             8    3     1       0.5542111565E-04       8    3    1         0.1440978782E-02      0.7051773510E-02
          0                 8           1             8    3     1       0.2487339369E-04       8    3    1         0.6467285474E-03      0.3131882531E-02
          0                 9           1             8    3     1       0.1116321070E-04       8    3    1         0.2902557123E-03      0.1400920478E-02
          0                10           1             8    3     1       0.5009997569E-05       8    3    1         0.1302668234E-03      0.6273824399E-03

    ------------------------------------------------
       NWT REQUIRED           10 OUTER ITERATIONS 
       AND A TOTAL OF         16 INNER ITERATIONS.
    ------------------------------------------------

 OUTPUT CONTROL FOR STRESS PERIOD    7   TIME STEP   10
    PRINT BUDGET
    SAVE BUDGET
 UBUDSV SAVING "         STORAGE" ON UNIT102 AT TIME STEP    10, STRESS PERIOD    7
 UBUDSV SAVING "   CONSTANT HEAD" ON UNIT102 AT TIME STEP    10, STRESS PERIOD    7
 UBUDSV SAVING "FLOW RIGHT FACE " ON UNIT102 AT TIME STEP    10, STRESS PERIOD    7
 UBUDSV SAVING "FLOW FRONT FACE " ON UNIT102 AT TIME STEP    10, STRESS PERIOD    7

  HEAD DEP BOUNDS   PERIOD    7   STEP    10
 BOUNDARY      1   LAYER   1   ROW    13   COL     1   RATE   -0.292622    
 BOUNDARY      2   LAYER   1   ROW    14   COL     9   RATE     1.04585    



 STREAM LISTING     PERIOD      7   STEP       10

 LAYER ROW COL. STREAM  RCH.  FLOW INTO     FLOW TO   FLOW OUT OF   OVRLND.     DIRECT     STREAM       STREAM     STREAM     STREAM   STREAMBED  STREAMBED
                SEG.NO.  NO.  STRM. RCH.    AQUIFER    STRM. RCH.    RUNOFF     PRECIP       ET          HEAD       DEPTH      WIDTH   CONDCTNC.   GRADIENT

   1    1    1     1     1    6.3000E+01  3.8236E-09   6.3000E+01  0.000E+00  0.000E+00  0.000E+00  1.09461E+03  1.562E+00  1.863E+01  8.382E-10  1.521E+00
   1    2    2     1     2    6.3000E+01  5.9422E-09   6.3000E+01  0.000E+00  0.000E+00  0.000E+00  1.08962E+03  1.560E+00  1.861E+01  1.303E-09  1.520E+00
   1    3    3     1     3    6.3000E+01  5.0953E-09   6.3000E+01  0.000E+00  0.000E+00  0.000E+00  1.08398E+03  1.561E+00  1.862E+01  1.117E-09  1.520E+00
   1    3    4     1     4    6.3000E+01  4.7139E-09   6.3000E+01  0.000E+00  0.000E+00  0.000E+00  1.07897E+03  1.561E+00  1.862E+01  1.034E-09  1.520E+00
   1    4    5     2     1    6.1000E+01  3.9454E-01   6.0605E+01  0.000E+00  0.000E+00  0.000E+00  1.07399E+03  2.058E+00  1.200E+01  7.800E-02  1.686E+00
   1    5    6     2     2    6.0605E+01  3.0307E-01   6.0302E+01  0.000E+00  0.000E+00  0.000E+00  1.06856E+03  2.051E+00  1.200E+01  6.000E-02  1.684E+00
   1    6    6     2     3    6.0302E+01  3.0270E-01   6.0000E+01  0.000E+00  0.000E+00  0.000E+00  1.06384E+03  2.045E+00  1.200E+01  6.000E-02  1.682E+00
   1    7    6     2     4    6.0000E+01  3.0233E-01   5.9697E+01  0.000E+00  0.000E+00  0.000E+00  1.05911E+03  2.039E+00  1.200E+01  6.000E-02  1.680E+00
   1    8    6     2     5    5.9697E+01  3.0196E-01   5.9395E+01  0.000E+00  0.000E+00  0.000E+00  1.05439E+03  2.033E+00  1.200E+01  6.000E-02  1.678E+00
   1    3    5     3     1    2.0000E+00  2.8252E-01   1.7175E+00  0.000E+00  0.000E+00  0.000E+00  1.07555E+03  1.909E+00  9.636E+00  7.227E-02  1.955E+00
   1    3    6     3     2    1.7175E+00  2.4905E-01   1.4684E+00  0.000E+00  0.000E+00  0.000E+00  1.07264E+03  1.727E+00  8.909E+00  6.682E-02  1.864E+00
   1    3    7     3     3    1.4684E+00  1.9718E-01   1.2712E+00  0.000E+00  0.000E+00  0.000E+00  1.06987E+03  1.555E+00  8.218E+00  5.547E-02  1.777E+00
   1    4    8     3     4    1.2712E+00  2.2567E-01   1.0456E+00  0.000E+00  0.000E+00  0.000E+00  1.06682E+03  1.364E+00  7.455E+00  6.709E-02  1.682E+00
   1    5    8     3     5    1.0456E+00  1.5790E-01   8.8768E-01  0.000E+00  0.000E+00  0.000E+00  1.06362E+03  1.164E+00  6.655E+00  4.991E-02  1.582E+00
   1    6    8     3     6    8.8768E-01  5.5980E-02   8.3170E-01  0.000E+00  0.000E+00  0.000E+00  1.06158E+03  1.036E+00  6.145E+00  1.844E-02  1.518E+00
   1    5   10     4     1    1.0000E+01  9.0919E-02   9.9091E+00  0.000E+00  0.000E+00  0.000E+00  1.07836E+03  6.368E-01  1.000E+01  2.500E-02  1.212E+00
   1    5    9     4     2    9.9091E+00  1.8158E-01   9.7275E+00  0.000E+00  0.000E+00  0.000E+00  1.07154E+03  6.315E-01  1.000E+01  5.000E-02  1.211E+00
   1    6    8     4     3    9.7275E+00  1.2689E-01   9.6006E+00  0.000E+00  0.000E+00  0.000E+00  1.06381E+03  6.256E-01  1.000E+01  3.500E-02  1.209E+00
   1    6    8     5     1    1.0432E+01  2.2686E-09   1.0432E+01  0.000E+00  0.000E+00  0.000E+00  1.05868E+03  6.790E-01  1.542E+01  6.166E-10  1.226E+00
   1    7    7     5     2    1.0432E+01  2.8306E-09   1.0432E+01  0.000E+00  0.000E+00  0.000E+00  1.05418E+03  6.784E-01  1.539E+01  7.695E-10  1.226E+00
   1    8    7     5     3    1.0432E+01  1.9868E-09   1.0432E+01  0.000E+00  0.000E+00  0.000E+00  1.04993E+03  6.794E-01  1.543E+01  5.400E-10  1.226E+00
   1    8    6     5     4    1.0432E+01  1.4217E-09   1.0432E+01  0.000E+00  0.000E+00  0.000E+00  1.04693E+03  6.800E-01  1.545E+01  3.863E-10  1.227E+00
   1    9    6     6     1    6.9828E+01  3.1550E-01   6.9512E+01  0.000E+00  0.000E+00  0.000E+00  1.04499E+03  2.258E+00  1.200E+01  6.000E-02  1.753E+00
   1   10    7     6     2    6.9512E+01  3.1513E-01   6.9197E+01  0.000E+00  0.000E+00  0.000E+00  1.04043E+03  2.252E+00  1.200E+01  6.000E-02  1.751E+00
   1   11    7     6     3    6.9197E+01  3.1477E-01   6.8882E+01  0.000E+00  0.000E+00  0.000E+00  1.03588E+03  2.246E+00  1.200E+01  6.000E-02  1.749E+00
   1   12    7     6     4    6.8882E+01  3.1440E-01   6.8568E+01  0.000E+00  0.000E+00  0.000E+00  1.03133E+03  2.240E+00  1.200E+01  6.000E-02  1.747E+00
   1   13    7     6     5    6.8568E+01  1.2566E-01   6.8442E+01  0.000E+00  0.000E+00  0.000E+00  1.02814E+03  2.236E+00  1.200E+01  2.400E-02  1.745E+00
   1   14    9     7     1    1.5000E+02  2.9539E-08   1.5000E+02  0.000E+00  0.000E+00  0.000E+00  1.03986E+03  2.283E+00  5.528E+01  5.591E-09  1.761E+00
   1   13    8     7     2    1.5000E+02  3.2486E-14   1.5000E+02  0.000E+00  0.000E+00  0.000E+00  1.03478E+03  2.283E+00  5.527E+01  6.150E-15  1.761E+00
   1   13    7     7     3    1.5000E+02  2.9539E-08   1.5000E+02  0.000E+00  0.000E+00  0.000E+00  1.02970E+03  2.283E+00  5.528E+01  5.591E-09  1.761E+00
   1   13    6     8     1    2.1844E+02  2.9803E-19   2.1844E+02  0.000E+00  0.000E+00  0.000E+00  1.02511E+03  3.235E+00  4.691E+01  4.780E-20  2.078E+00
   1   13    5     8     2    2.1844E+02  2.9803E-19   2.1844E+02  0.000E+00  0.000E+00  0.000E+00  1.01886E+03  3.235E+00  4.691E+01  4.780E-20  2.078E+00
   1   13    4     8     3    2.1844E+02  2.4944E-18   2.1844E+02  0.000E+00  0.000E+00  0.000E+00  1.01261E+03  3.236E+00  4.693E+01  4.782E-19  1.739E+00
   1   13    3     8     4    2.1844E+02  6.7146E-09   2.1844E+02  0.000E+00  0.000E+00  0.000E+00  1.00637E+03  3.241E+00  4.700E+01  4.789E-09  4.673E-01
   1   13    2     8     5    2.1844E+02 -1.2881E+00   2.1973E+02  0.000E+00  0.000E+00  0.000E+00  1.00012E+03  3.247E+00  4.708E+01  4.798E+00 -8.950E-02
   1   13    1     8     6    2.1973E+02 -1.6466E+00   2.2138E+02  0.000E+00  0.000E+00  0.000E+00  9.95130E+02  3.255E+00  4.720E+01  2.886E+00 -1.902E-01
   1    6    8     9     1    6.5684E-08  0.0000E+00   6.5684E-08  0.000E+00  0.000E+00  0.000E+00  1.07850E+03  7.067E-06  4.000E+00  0.000E+00  1.000E+00



 UBDSV3 SAVING "     NETRECHARGE" ON UNIT 100 AT TIME STEP    10, STRESS PERIOD   7
 UBDSV3 SAVING "    NETDISCHARGE" ON UNIT 101 AT TIME STEP    10, STRESS PERIOD   7
 UBDSV3 SAVING "           GW ET" ON UNIT  61 AT TIME STEP    10, STRESS PERIOD   7
 UBDSV3 SAVING "    UZF RECHARGE" ON UNIT  61 AT TIME STEP    10, STRESS PERIOD   7
 UBDSV3 SAVING " SURFACE LEAKAGE" ON UNIT  61 AT TIME STEP    10, STRESS PERIOD   7
 UBDSV3 SAVING "       HORT+DUNN" ON UNIT  61 AT TIME STEP    10, STRESS PERIOD   7
 UBDSV3 SAVING "  STORAGE CHANGE" ON UNIT  61 AT TIME STEP    10, STRESS PERIOD   7


UNSATURATED ZONE PACKAGE VOLUMETRIC BUDGET FOR  TIME STEP    10 STRESS PERIOD    7
  ------------------------------------------------------------------------------



     CUMULATIVE VOLUMES      L**3       RATES FOR THIS TIME STEP      L**3/T
     ------------------                 ------------------------

           IN:                                      IN:
           ---                                      ---
        INFILTRATION =    14105790.0574          INFILTRATION =           0.8475

          OUT:                                     OUT:
          ----                                     ----
              UZF ET =   189945299.6659                UZF ET =          85.6866
        UZF RECHARGE =   400094622.7207          UZF RECHARGE =          27.3014

            IN - OUT =  -575934132.3292              IN - OUT =        -112.1405

          STORAGE:                                 STORAGE:
          --------                                 --------
      STORAGE CHANGE =  -575931696.6255        STORAGE CHANGE =        -112.1405

 PERCENT DISCREPANCY IS DIFFERENCE BETWEEN IN-OUT MINUS CHANGE IN STORAGE
 DIVIDED BY THE AVERAGE OF IN AND OUT TIMES 100

 PERCENT DISCREPANCY =          -0.00     PERCENT DISCREPANCY =           0.00






1
  VOLUMETRIC BUDGET FOR ENTIRE MODEL AT END OF TIME STEP   10, STRESS PERIOD   7
  ------------------------------------------------------------------------------

     CUMULATIVE VOLUMES      L**3       RATES FOR THIS TIME STEP      L**3/T
     ------------------                 ------------------------

           IN:                                      IN:
           ---                                      ---
             STORAGE =     3018835.7500               STORAGE =           0.9537
       CONSTANT HEAD =           0.0000         CONSTANT HEAD =           0.0000
               WELLS =           0.0000                 WELLS =           0.0000
     HEAD DEP BOUNDS =    17639776.0000       HEAD DEP BOUNDS =           1.0458
      STREAM LEAKAGE =    65526348.0000        STREAM LEAKAGE =           4.5577
        UZF RECHARGE =   400094592.0000          UZF RECHARGE =          27.3014
               GW ET =           0.0000                 GW ET =           0.0000
     SURFACE LEAKAGE =           0.0000       SURFACE LEAKAGE =           0.0000

            TOTAL IN =   486279552.0000              TOTAL IN =          33.8586

          OUT:                                     OUT:
          ----                                     ----
             STORAGE =   433760352.0000               STORAGE =          29.3158
       CONSTANT HEAD =           0.0000         CONSTANT HEAD =           0.0000
               WELLS =           0.0000                 WELLS =           0.0000
     HEAD DEP BOUNDS =     4808130.0000       HEAD DEP BOUNDS =           0.2926
      STREAM LEAKAGE =    42835488.0000        STREAM LEAKAGE =           2.9347
        UZF RECHARGE =           0.0000          UZF RECHARGE =           0.0000
               GW ET =     4842051.5000                 GW ET =           1.3134
     SURFACE LEAKAGE =           0.0000       SURFACE LEAKAGE =           0.0000

           TOTAL OUT =   486246016.0000             TOTAL OUT =          33.8565

            IN - OUT =       33536.0000              IN - OUT =       2.0981E-03

 PERCENT DISCREPANCY =           0.01     PERCENT DISCREPANCY =           0.01






         TIME SUMMARY AT END OF TIME STEP   10 IN STRESS PERIOD    7
                    SECONDS     MINUTES      HOURS       DAYS        YEARS
                    -----------------------------------------------------------
   TIME STEP LENGTH  87600.      1460.0      24.333      1.0139     2.77588E-03
 STRESS PERIOD TIME 8.76000E+05  14600.      243.33      10.139     2.77588E-02
         TOTAL TIME 1.66440E+07 2.77400E+05  4623.3      192.64     0.52742    
1
 
 SOLVING FOR HEAD 
                                                   Max.-Head-Change                         Max.-Flux-Residual
  Residual-Control   Outer-Iter.   Inner-Iter.     Column Row Layer    Maximum-Head-Change  Column Row Layer    Maximum-Flux-Residual          L2-NORM 
          0                 1           2             7    6     1      -0.2886328673E+00       7    6    1        -0.1573081384E+02      0.1585637876E+02
          0                 2           2             7    6     1       0.3170276392E+00       7    6    1         0.1745129961E+02      0.1745791774E+02
          0                 3           2             7    6     1      -0.1821517460E-01       7    6    1        -0.1012588141E+01      0.1033466951E+01
          0                 4           2             7    6     1      -0.3218854162E-02       7    6    1        -0.1787766111E+00      0.1954087706E+00
          0                 5           2             7    6     1      -0.5695290750E-03       7    6    1        -0.3160614257E-01      0.4701779611E-01
          0                 6           2             8    3     1       0.1232701366E-03       7    6    1        -0.5594490203E-02      0.1654662629E-01
          0                 7           1             8    3     1       0.5532521032E-04       8    3    1         0.1438485962E-02      0.7043514470E-02
          0                 8           1             8    3     1       0.2483033570E-04       8    3    1         0.6456093189E-03      0.3128159142E-02
          0                 9           1             8    3     1       0.1114388024E-04       8    3    1         0.2897532258E-03      0.1399254750E-02
          0                10           1             8    3     1       0.5001319841E-05       8    3    1         0.1300412392E-03      0.6266383130E-03

    ------------------------------------------------
       NWT REQUIRED           10 OUTER ITERATIONS 
       AND A TOTAL OF         16 INNER ITERATIONS.
    ------------------------------------------------

 NO OUTPUT CONTROL FOR STRESS PERIOD    7   TIME STEP   11
 
 SOLVING FOR HEAD 
                                                   Max.-Head-Change                         Max.-Flux-Residual
  Residual-Control   Outer-Iter.   Inner-Iter.     Column Row Layer    Maximum-Head-Change  Column Row Layer    Maximum-Flux-Residual          L2-NORM 
          0                 1           2             7    6     1      -0.2886359735E+00       7    6    1        -0.1573100077E+02      0.1585498548E+02
          0                 2           2             7    6     1       0.3170271678E+00       7    6    1         0.1745128712E+02      0.1745788151E+02
          0                 3           2             7    6     1      -0.1821551871E-01       7    6    1        -0.1012608000E+01      0.1033449624E+01
          0                 4           2             7    6     1      -0.3218911693E-02       7    6    1        -0.1787799335E+00      0.1953752836E+00
          0                 5           2             7    6     1      -0.5695386927E-03       7    6    1        -0.3160669798E-01      0.4698786759E-01
          0                 6           2             8    3     1       0.1230559737E-03       7    6    1        -0.5594583049E-02      0.1652942421E-01
          0                 7           1             8    3     1       0.5522907101E-04       8    3    1         0.1435986707E-02      0.7035413714E-02
          0                 8           1             8    3     1       0.2478717992E-04       8    3    1         0.6444873903E-03      0.3124507459E-02
          0                 9           1             8    3     1       0.1112450902E-04       8    3    1         0.2892496093E-03      0.1397620583E-02
          0                10           1             8    3     1       0.4992625106E-05       8    3    1         0.1298151826E-03      0.6259070501E-03

    ------------------------------------------------
       NWT REQUIRED           10 OUTER ITERATIONS 
       AND A TOTAL OF         16 INNER ITERATIONS.
    ------------------------------------------------

 NO OUTPUT CONTROL FOR STRESS PERIOD    7   TIME STEP   12
 
 SOLVING FOR HEAD 
                                                   Max.-Head-Change                         Max.-Flux-Residual
  Residual-Control   Outer-Iter.   Inner-Iter.     Column Row Layer    Maximum-Head-Change  Column Row Layer    Maximum-Flux-Residual          L2-NORM 
          0                 1           2             7    6     1      -0.2886387813E+00       7    6    1        -0.1573117159E+02      0.1585378074E+02
          0                 2           2             7    6     1       0.3170266957E+00       7    6    1         0.1745127458E+02      0.1745784710E+02
          0                 3           2             7    6     1      -0.1821581364E-01       7    6    1        -0.1012625149E+01      0.1033430396E+01
          0                 4           2             7    6     1      -0.3218960422E-02       7    6    1        -0.1787827709E+00      0.1953418724E+00
          0                 5           2             7    6     1      -0.5695467349E-03       7    6    1        -0.3160716654E-01      0.4695828918E-01
          0                 6           2             8    3     1       0.1228425373E-03       7    6    1        -0.5594660342E-02      0.1651244217E-01
          0                 7           1             8    3     1       0.5513325235E-04       8    3    1         0.1433495899E-02      0.7027417032E-02
          0                 8           1             8    3     1       0.2474416632E-04       8    3    1         0.6433692060E-03      0.3120902547E-02
          0                 9           1             8    3     1       0.1110520094E-04       8    3    1         0.2887476486E-03      0.1396007107E-02
          0                10           1             8    3     1       0.4983957758E-05       8    3    1         0.1295898538E-03      0.6251860104E-03

    ------------------------------------------------
       NWT REQUIRED           10 OUTER ITERATIONS 
       AND A TOTAL OF         16 INNER ITERATIONS.
    ------------------------------------------------

 NO OUTPUT CONTROL FOR STRESS PERIOD    7   TIME STEP   13
 
 SOLVING FOR HEAD 
                                                   Max.-Head-Change                         Max.-Flux-Residual
  Residual-Control   Outer-Iter.   Inner-Iter.     Column Row Layer    Maximum-Head-Change  Column Row Layer    Maximum-Flux-Residual          L2-NORM 
          0                 1           2             7    6     1      -0.2886414255E+00       7    6    1        -0.1573133342E+02      0.1585273689E+02
          0                 2           2             7    6     1       0.3170262332E+00       7    6    1         0.1745126264E+02      0.1745781501E+02
          0                 3           2             7    6     1      -0.1821609098E-01       7    6    1        -0.1012641333E+01      0.1033411131E+01
          0                 4           2             7    6     1      -0.3219005983E-02       7    6    1        -0.1787854344E+00      0.1953089723E+00
          0                 5           2             7    6     1      -0.5695542078E-03       7    6    1        -0.3160760383E-01      0.4692921961E-01
          0                 6           2             8    3     1       0.1226286133E-03       7    6    1        -0.5594732032E-02      0.1649575071E-01
          0                 7           1             8    3     1       0.5503723409E-04       8    3    1         0.1430999501E-02      0.7019556054E-02
          0                 8           1             8    3     1       0.2470107043E-04       8    3    1         0.6422487138E-03      0.3117358289E-02
          0                 9           1             8    3     1       0.1108585911E-04       8    3    1         0.2882447476E-03      0.1394420617E-02
          0                10           1             8    3     1       0.4975277654E-05       8    3    1         0.1293641528E-03      0.6244765612E-03

    ------------------------------------------------
       NWT REQUIRED           10 OUTER ITERATIONS 
       AND A TOTAL OF         16 INNER ITERATIONS.
    ------------------------------------------------

 NO OUTPUT CONTROL FOR STRESS PERIOD    7   TIME STEP   14
 
 SOLVING FOR HEAD 
                                                   Max.-Head-Change                         Max.-Flux-Residual
  Residual-Control   Outer-Iter.   Inner-Iter.     Column Row Layer    Maximum-Head-Change  Column Row Layer    Maximum-Flux-Residual          L2-NORM 
          0                 1           2             7    6     1      -0.2886436879E+00       7    6    1        -0.1573147431E+02      0.1585182649E+02
          0                 2           2             7    6     1       0.3170257571E+00       7    6    1         0.1745124999E+02      0.1745778367E+02
          0                 3           2             7    6     1      -0.1821629685E-01       7    6    1        -0.1012653563E+01      0.1033388690E+01
          0                 4           2             7    6     1      -0.3219038830E-02       7    6    1        -0.1787873945E+00      0.1952759728E+00
          0                 5           2             7    6     1      -0.5695594166E-03       7    6    1        -0.3160791595E-01      0.4690049865E-01
          0                 6           2             8    3     1       0.1224155328E-03       7    6    1        -0.5594781431E-02      0.1647928971E-01
          0                 7           1             8    3     1       0.5494159388E-04       8    3    1         0.1428512941E-02      0.7011804719E-02
          0                 8           1             8    3     1       0.2465814463E-04       8    3    1         0.6411326438E-03      0.3113863262E-02
          0                 9           1             8    3     1       0.1106659355E-04       8    3    1         0.2877438317E-03      0.1392856120E-02
          0                10           1             8    3     1       0.4966631941E-05       8    3    1         0.1291393447E-03      0.6237770307E-03

    ------------------------------------------------
       NWT REQUIRED           10 OUTER ITERATIONS 
       AND A TOTAL OF         16 INNER ITERATIONS.
    ------------------------------------------------

 OUTPUT CONTROL FOR STRESS PERIOD    7   TIME STEP   15
    PRINT BUDGET
    PRINT HEAD FOR ALL LAYERS
    SAVE HEAD FOR ALL LAYERS
    SAVE BUDGET
 UBUDSV SAVING "         STORAGE" ON UNIT102 AT TIME STEP    15, STRESS PERIOD    7
 UBUDSV SAVING "   CONSTANT HEAD" ON UNIT102 AT TIME STEP    15, STRESS PERIOD    7
 UBUDSV SAVING "FLOW RIGHT FACE " ON UNIT102 AT TIME STEP    15, STRESS PERIOD    7
 UBUDSV SAVING "FLOW FRONT FACE " ON UNIT102 AT TIME STEP    15, STRESS PERIOD    7

  HEAD DEP BOUNDS   PERIOD    7   STEP    15
 BOUNDARY      1   LAYER   1   ROW    13   COL     1   RATE   -0.291313    
 BOUNDARY      2   LAYER   1   ROW    14   COL     9   RATE     1.04506    



 STREAM LISTING     PERIOD      7   STEP       15

 LAYER ROW COL. STREAM  RCH.  FLOW INTO     FLOW TO   FLOW OUT OF   OVRLND.     DIRECT     STREAM       STREAM     STREAM     STREAM   STREAMBED  STREAMBED
                SEG.NO.  NO.  STRM. RCH.    AQUIFER    STRM. RCH.    RUNOFF     PRECIP       ET          HEAD       DEPTH      WIDTH   CONDCTNC.   GRADIENT

   1    1    1     1     1    6.3000E+01  3.8236E-09   6.3000E+01  0.000E+00  0.000E+00  0.000E+00  1.09461E+03  1.562E+00  1.863E+01  8.382E-10  1.521E+00
   1    2    2     1     2    6.3000E+01  5.9422E-09   6.3000E+01  0.000E+00  0.000E+00  0.000E+00  1.08962E+03  1.560E+00  1.861E+01  1.303E-09  1.520E+00
   1    3    3     1     3    6.3000E+01  5.0953E-09   6.3000E+01  0.000E+00  0.000E+00  0.000E+00  1.08398E+03  1.561E+00  1.862E+01  1.117E-09  1.520E+00
   1    3    4     1     4    6.3000E+01  4.7139E-09   6.3000E+01  0.000E+00  0.000E+00  0.000E+00  1.07897E+03  1.561E+00  1.862E+01  1.034E-09  1.520E+00
   1    4    5     2     1    6.1000E+01  3.9454E-01   6.0605E+01  0.000E+00  0.000E+00  0.000E+00  1.07399E+03  2.058E+00  1.200E+01  7.800E-02  1.686E+00
   1    5    6     2     2    6.0605E+01  3.0307E-01   6.0302E+01  0.000E+00  0.000E+00  0.000E+00  1.06856E+03  2.051E+00  1.200E+01  6.000E-02  1.684E+00
   1    6    6     2     3    6.0302E+01  3.0270E-01   6.0000E+01  0.000E+00  0.000E+00  0.000E+00  1.06384E+03  2.045E+00  1.200E+01  6.000E-02  1.682E+00
   1    7    6     2     4    6.0000E+01  3.0233E-01   5.9697E+01  0.000E+00  0.000E+00  0.000E+00  1.05911E+03  2.039E+00  1.200E+01  6.000E-02  1.680E+00
   1    8    6     2     5    5.9697E+01  3.0196E-01   5.9395E+01  0.000E+00  0.000E+00  0.000E+00  1.05439E+03  2.033E+00  1.200E+01  6.000E-02  1.678E+00
   1    3    5     3     1    2.0000E+00  2.8252E-01   1.7175E+00  0.000E+00  0.000E+00  0.000E+00  1.07555E+03  1.909E+00  9.636E+00  7.227E-02  1.955E+00
   1    3    6     3     2    1.7175E+00  2.4905E-01   1.4684E+00  0.000E+00  0.000E+00  0.000E+00  1.07264E+03  1.727E+00  8.909E+00  6.682E-02  1.864E+00
   1    3    7     3     3    1.4684E+00  1.9718E-01   1.2712E+00  0.000E+00  0.000E+00  0.000E+00  1.06987E+03  1.555E+00  8.218E+00  5.547E-02  1.777E+00
   1    4    8     3     4    1.2712E+00  2.2567E-01   1.0456E+00  0.000E+00  0.000E+00  0.000E+00  1.06682E+03  1.364E+00  7.455E+00  6.709E-02  1.682E+00
   1    5    8     3     5    1.0456E+00  1.5790E-01   8.8768E-01  0.000E+00  0.000E+00  0.000E+00  1.06362E+03  1.164E+00  6.655E+00  4.991E-02  1.582E+00
   1    6    8     3     6    8.8768E-01  5.5980E-02   8.3170E-01  0.000E+00  0.000E+00  0.000E+00  1.06158E+03  1.036E+00  6.145E+00  1.844E-02  1.518E+00
   1    5   10     4     1    1.0000E+01  9.0919E-02   9.9091E+00  0.000E+00  0.000E+00  0.000E+00  1.07836E+03  6.368E-01  1.000E+01  2.500E-02  1.212E+00
   1    5    9     4     2    9.9091E+00  1.8158E-01   9.7275E+00  0.000E+00  0.000E+00  0.000E+00  1.07154E+03  6.315E-01  1.000E+01  5.000E-02  1.211E+00
   1    6    8     4     3    9.7275E+00  1.2689E-01   9.6006E+00  0.000E+00  0.000E+00  0.000E+00  1.06381E+03  6.256E-01  1.000E+01  3.500E-02  1.209E+00
   1    6    8     5     1    1.0432E+01  2.2686E-09   1.0432E+01  0.000E+00  0.000E+00  0.000E+00  1.05868E+03  6.790E-01  1.542E+01  6.166E-10  1.226E+00
   1    7    7     5     2    1.0432E+01  2.8306E-09   1.0432E+01  0.000E+00  0.000E+00  0.000E+00  1.05418E+03  6.784E-01  1.539E+01  7.695E-10  1.226E+00
   1    8    7     5     3    1.0432E+01  1.9868E-09   1.0432E+01  0.000E+00  0.000E+00  0.000E+00  1.04993E+03  6.794E-01  1.543E+01  5.400E-10  1.226E+00
   1    8    6     5     4    1.0432E+01  1.4217E-09   1.0432E+01  0.000E+00  0.000E+00  0.000E+00  1.04693E+03  6.800E-01  1.545E+01  3.863E-10  1.227E+00
   1    9    6     6     1    6.9828E+01  3.1550E-01   6.9512E+01  0.000E+00  0.000E+00  0.000E+00  1.04499E+03  2.258E+00  1.200E+01  6.000E-02  1.753E+00
   1   10    7     6     2    6.9512E+01  3.1513E-01   6.9197E+01  0.000E+00  0.000E+00  0.000E+00  1.04043E+03  2.252E+00  1.200E+01  6.000E-02  1.751E+00
   1   11    7     6     3    6.9197E+01  3.1477E-01   6.8882E+01  0.000E+00  0.000E+00  0.000E+00  1.03588E+03  2.246E+00  1.200E+01  6.000E-02  1.749E+00
   1   12    7     6     4    6.8882E+01  3.1440E-01   6.8568E+01  0.000E+00  0.000E+00  0.000E+00  1.03133E+03  2.240E+00  1.200E+01  6.000E-02  1.747E+00
   1   13    7     6     5    6.8568E+01  1.2566E-01   6.8442E+01  0.000E+00  0.000E+00  0.000E+00  1.02814E+03  2.236E+00  1.200E+01  2.400E-02  1.745E+00
   1   14    9     7     1    1.5000E+02  2.9539E-08   1.5000E+02  0.000E+00  0.000E+00  0.000E+00  1.03986E+03  2.283E+00  5.528E+01  5.591E-09  1.761E+00
   1   13    8     7     2    1.5000E+02  3.2486E-14   1.5000E+02  0.000E+00  0.000E+00  0.000E+00  1.03478E+03  2.283E+00  5.527E+01  6.150E-15  1.761E+00
   1   13    7     7     3    1.5000E+02  2.9539E-08   1.5000E+02  0.000E+00  0.000E+00  0.000E+00  1.02970E+03  2.283E+00  5.528E+01  5.591E-09  1.761E+00
   1   13    6     8     1    2.1844E+02  2.9803E-19   2.1844E+02  0.000E+00  0.000E+00  0.000E+00  1.02511E+03  3.235E+00  4.691E+01  4.780E-20  2.078E+00
   1   13    5     8     2    2.1844E+02  2.9803E-19   2.1844E+02  0.000E+00  0.000E+00  0.000E+00  1.01886E+03  3.235E+00  4.691E+01  4.780E-20  2.078E+00
   1   13    4     8     3    2.1844E+02  2.4880E-17   2.1844E+02  0.000E+00  0.000E+00  0.000E+00  1.01261E+03  3.236E+00  4.693E+01  4.782E-18  1.734E+00
   1   13    3     8     4    2.1844E+02  6.7460E-09   2.1844E+02  0.000E+00  0.000E+00  0.000E+00  1.00637E+03  3.241E+00  4.700E+01  4.789E-09  4.695E-01
   1   13    2     8     5    2.1844E+02 -1.1573E+00   2.1960E+02  0.000E+00  0.000E+00  0.000E+00  1.00012E+03  3.246E+00  4.707E+01  4.797E+00 -8.042E-02
   1   13    1     8     6    2.1960E+02 -1.5496E+00   2.2115E+02  0.000E+00  0.000E+00  0.000E+00  9.95129E+02  3.254E+00  4.718E+01  2.885E+00 -1.791E-01
   1    6    8     9     1    6.5684E-08  0.0000E+00   6.5684E-08  0.000E+00  0.000E+00  0.000E+00  1.07850E+03  7.067E-06  4.000E+00  0.000E+00  1.000E+00



 UBDSV3 SAVING "     NETRECHARGE" ON UNIT 100 AT TIME STEP    15, STRESS PERIOD   7
 UBDSV3 SAVING "    NETDISCHARGE" ON UNIT 101 AT TIME STEP    15, STRESS PERIOD   7
 UBDSV3 SAVING "           GW ET" ON UNIT  61 AT TIME STEP    15, STRESS PERIOD   7
 UBDSV3 SAVING "    UZF RECHARGE" ON UNIT  61 AT TIME STEP    15, STRESS PERIOD   7
 UBDSV3 SAVING " SURFACE LEAKAGE" ON UNIT  61 AT TIME STEP    15, STRESS PERIOD   7
 UBDSV3 SAVING "       HORT+DUNN" ON UNIT  61 AT TIME STEP    15, STRESS PERIOD   7
 UBDSV3 SAVING "  STORAGE CHANGE" ON UNIT  61 AT TIME STEP    15, STRESS PERIOD   7


UNSATURATED ZONE PACKAGE VOLUMETRIC BUDGET FOR  TIME STEP    15 STRESS PERIOD    7
  ------------------------------------------------------------------------------



     CUMULATIVE VOLUMES      L**3       RATES FOR THIS TIME STEP      L**3/T
     ------------------                 ------------------------

           IN:                                      IN:
           ---                                      ---
        INFILTRATION =    14476995.0861          INFILTRATION =           0.8475

          OUT:                                     OUT:
          ----                                     ----
              UZF ET =   227476259.4560                UZF ET =          85.6874
        UZF RECHARGE =   412035485.1206          UZF RECHARGE =          27.2433

            IN - OUT =  -625034749.4905              IN - OUT =        -112.0832

          STORAGE:                                 STORAGE:
          --------                                 --------
      STORAGE CHANGE =  -625032315.7597        STORAGE CHANGE =        -112.0833

 PERCENT DISCREPANCY IS DIFFERENCE BETWEEN IN-OUT MINUS CHANGE IN STORAGE
 DIVIDED BY THE AVERAGE OF IN AND OUT TIMES 100

 PERCENT DISCREPANCY =          -0.00     PERCENT DISCREPANCY =           0.00






1
              HEAD IN LAYER   1 AT END OF TIME STEP    15 IN STRESS PERIOD    7
  -----------------------------------------------------------------------------

           1       2       3       4       5       6       7       8       9      10
 ...................................................................................
   1  1011.97 1011.81 6999.00 6999.00 6999.00 6999.00 6999.00 6999.00 6999.00 6999.00
   2  1013.04 1011.57 1011.51 6999.00 6999.00 1013.46 1013.55 1013.50 6999.00 6999.00
   3  6999.00 1012.00 1011.59 1011.68 1012.67 1013.34 1013.67 1013.45 6999.00 6999.00
   4  1012.98 1012.38 1011.80 1011.63 1011.90 1011.93 1012.44 1013.47 1013.25 6999.00
   5  1012.93 1012.34 1011.79 1011.46 1011.55 1011.74 1011.77 1012.08 1012.57 1013.08
   6  1012.82 1012.20 1011.64 1011.26 1011.32 1011.55 1011.56 1011.81 1012.54 1013.72
   7  1012.70 1011.96 1011.41 1011.04 1011.10 1011.33 1011.34 1011.54 1012.55 6999.00
   8  6999.00 1011.53 1011.09 1010.75 1010.83 1011.09 1011.12 1011.72 1012.67 6999.00
   9  6999.00 1010.84 1010.58 1010.34 1010.47 1010.80 1010.95 1011.73 1012.77 6999.00
  10  6999.00 1009.81 1009.80 1009.81 1010.05 1010.45 1010.93 1011.76 1012.94 1013.72
  11  6999.00 1008.04 1008.43 1009.08 1009.58 1010.18 1010.90 1011.91 1013.28 6999.00
  12  1000.79 1004.52 1006.66 1008.09 1009.08 1009.99 1010.94 1012.32 1014.30 6999.00
  13   995.67 1000.36 1004.96 1007.41 1008.80 1009.97 1011.26 1012.83 1015.36 6999.00
  14  6999.00 1004.60 1006.22 1008.05 1009.48 1010.79 1012.38 1014.80 1017.50 6999.00
  15  6999.00 6999.00 1008.28 1009.25 1010.31 1011.09 6999.00 6999.00 6999.00 6999.00

 HEAD WILL BE SAVED ON UNIT   62 AT END OF TIME STEP   15, STRESS PERIOD    7
1
  VOLUMETRIC BUDGET FOR ENTIRE MODEL AT END OF TIME STEP   15, STRESS PERIOD   7
  ------------------------------------------------------------------------------

     CUMULATIVE VOLUMES      L**3       RATES FOR THIS TIME STEP      L**3/T
     ------------------                 ------------------------

           IN:                                      IN:
           ---                                      ---
             STORAGE =     3362100.5000               STORAGE =           0.6824
       CONSTANT HEAD =           0.0000         CONSTANT HEAD =           0.0000
               WELLS =           0.0000                 WELLS =           0.0000
     HEAD DEP BOUNDS =    18097650.0000       HEAD DEP BOUNDS =           1.0451
      STREAM LEAKAGE =    67522640.0000        STREAM LEAKAGE =           4.5577
        UZF RECHARGE =   412035488.0000          UZF RECHARGE =          27.2433
               GW ET =           0.0000                 GW ET =           0.0000
     SURFACE LEAKAGE =           0.0000       SURFACE LEAKAGE =           0.0000

            TOTAL IN =   501017888.0000              TOTAL IN =          33.5285

          OUT:                                     OUT:
          ----                                     ----
             STORAGE =   446572288.0000               STORAGE =          29.2156
       CONSTANT HEAD =           0.0000         CONSTANT HEAD =           0.0000
               WELLS =           0.0000                 WELLS =           0.0000
     HEAD DEP BOUNDS =     4935942.5000       HEAD DEP BOUNDS =           0.2913
      STREAM LEAKAGE =    44058108.0000        STREAM LEAKAGE =           2.7069
        UZF RECHARGE =           0.0000          UZF RECHARGE =           0.0000
               GW ET =     5417087.5000                 GW ET =           1.3126
     SURFACE LEAKAGE =           0.0000       SURFACE LEAKAGE =           0.0000

           TOTAL OUT =   500983424.0000             TOTAL OUT =          33.5264

            IN - OUT =       34464.0000              IN - OUT =       2.0752E-03

 PERCENT DISCREPANCY =           0.01     PERCENT DISCREPANCY =           0.01






         TIME SUMMARY AT END OF TIME STEP   15 IN STRESS PERIOD    7
                    SECONDS     MINUTES      HOURS       DAYS        YEARS
                    -----------------------------------------------------------
   TIME STEP LENGTH  87600.      1460.0      24.333      1.0139     2.77588E-03
 STRESS PERIOD TIME 1.31400E+06  21900.      365.00      15.208     4.16381E-02
         TOTAL TIME 1.70820E+07 2.84700E+05  4745.0      197.71     0.54130    
1
 
 SOLVING FOR HEAD 
                                                   Max.-Head-Change                         Max.-Flux-Residual
  Residual-Control   Outer-Iter.   Inner-Iter.     Column Row Layer    Maximum-Head-Change  Column Row Layer    Maximum-Flux-Residual          L2-NORM 
          0                 1           2             7    6     1      -0.2886458223E+00       7    6    1        -0.1573160831E+02      0.1585104305E+02
          0                 2           2             7    6     1       0.3170252920E+00       7    6    1         0.1745123796E+02      0.1745775431E+02
          0                 3           2             7    6     1      -0.1821649086E-01       7    6    1        -0.1012665148E+01      0.1033366321E+01
          0                 4           2             7    6     1      -0.3219069511E-02       7    6    1        -0.1787892368E+00      0.1952433742E+00
          0                 5           2             7    6     1      -0.5695642326E-03       7    6    1        -0.3160820660E-01      0.4687216490E-01
          0                 6           2             8    3     1       0.1222032832E-03       7    6    1        -0.5594826945E-02      0.1646304924E-01
          0                 7           1             8    3     1       0.5484632546E-04       8    3    1         0.1426036062E-02      0.7004156764E-02
          0                 8           1             8    3     1       0.2461538539E-04       8    3    1         0.6400209043E-03      0.3110414779E-02
          0                 9           1             8    3     1       0.1104740253E-04       8    3    1         0.2872448480E-03      0.1391313615E-02
          0                10           1             8    3     1       0.4958018867E-05       8    3    1         0.1289153946E-03      0.6230901710E-03

    ------------------------------------------------
       NWT REQUIRED           10 OUTER ITERATIONS 
       AND A TOTAL OF         16 INNER ITERATIONS.
    ------------------------------------------------

 NO OUTPUT CONTROL FOR STRESS PERIOD    7   TIME STEP   16
 
 SOLVING FOR HEAD 
                                                   Max.-Head-Change                         Max.-Flux-Residual
  Residual-Control   Outer-Iter.   Inner-Iter.     Column Row Layer    Maximum-Head-Change  Column Row Layer    Maximum-Flux-Residual          L2-NORM 
          0                 1           2             7    6     1      -0.2886476091E+00       7    6    1        -0.1573172314E+02      0.1585034794E+02
          0                 2           2             7    6     1       0.3170248133E+00       7    6    1         0.1745122524E+02      0.1745772543E+02
          0                 3           2             7    6     1      -0.1821661932E-01       7    6    1        -0.1012673104E+01      0.1033341134E+01
          0                 4           2             7    6     1      -0.3219088547E-02       7    6    1        -0.1787904343E+00      0.1952107641E+00
          0                 5           2             7    6     1      -0.5695669770E-03       7    6    1        -0.3160838267E-01      0.4684420995E-01
          0                 6           2             8    3     1       0.1219906065E-03       7    6    1        -0.5594852074E-02      0.1644705374E-01
          0                 7           1             8    3     1       0.5475088383E-04       8    3    1         0.1423554302E-02      0.6996625295E-02
          0                 8           1             8    3     1       0.2457255588E-04       8    3    1         0.6389071839E-03      0.3107018596E-02
          0                 9           1             8    3     1       0.1102818375E-04       8    3    1         0.2867450749E-03      0.1389791989E-02
          0                10           1             8    3     1       0.4949395038E-05       8    3    1         0.1286911330E-03      0.6224069051E-03

    ------------------------------------------------
       NWT REQUIRED           10 OUTER ITERATIONS 
       AND A TOTAL OF         16 INNER ITERATIONS.
    ------------------------------------------------

 NO OUTPUT CONTROL FOR STRESS PERIOD    7   TIME STEP   17
 
 SOLVING FOR HEAD 
                                                   Max.-Head-Change                         Max.-Flux-Residual
  Residual-Control   Outer-Iter.   Inner-Iter.     Column Row Layer    Maximum-Head-Change  Column Row Layer    Maximum-Flux-Residual          L2-NORM 
          0                 1           2             7    6     1      -0.2886493016E+00       7    6    1        -0.1573183287E+02      0.1584975007E+02
          0                 2           2             7    6     1       0.3170243460E+00       7    6    1         0.1745121318E+02      0.1745769818E+02
          0                 3           2             7    6     1      -0.1821674211E-01       7    6    1        -0.1012680755E+01      0.1033316187E+01
          0                 4           2             7    6     1      -0.3219106526E-02       7    6    1        -0.1787915750E+00      0.1951785285E+00
          0                 5           2             7    6     1      -0.5695695270E-03       7    6    1        -0.3160854818E-01      0.4681658858E-01
          0                 6           2             8    3     1       0.1217788211E-03       7    6    1        -0.5594875246E-02      0.1643124457E-01
          0                 7           1             8    3     1       0.5465584051E-04       8    3    1         0.1421082931E-02      0.6989180142E-02
          0                 8           1             8    3     1       0.2452990494E-04       8    3    1         0.6377981132E-03      0.3103661090E-02
          0                 9           1             8    3     1       0.1100904488E-04       8    3    1         0.2862473782E-03      0.1388288786E-02
          0                10           1             8    3     1       0.4940806850E-05       8    3    1         0.1284677954E-03      0.6217347196E-03

    ------------------------------------------------
       NWT REQUIRED           10 OUTER ITERATIONS 
       AND A TOTAL OF         16 INNER ITERATIONS.
    ------------------------------------------------

 NO OUTPUT CONTROL FOR STRESS PERIOD    7   TIME STEP   18
 
 SOLVING FOR HEAD 
                                                   Max.-Head-Change                         Max.-Flux-Residual
  Residual-Control   Outer-Iter.   Inner-Iter.     Column Row Layer    Maximum-Head-Change  Column Row Layer    Maximum-Flux-Residual          L2-NORM 
          0                 1           2             7    6     1      -0.2886507898E+00       7    6    1        -0.1573193146E+02      0.1584922567E+02
          0                 2           2             7    6     1       0.3170238782E+00       7    6    1         0.1745120111E+02      0.1745767187E+02
          0                 3           2             7    6     1      -0.1821683175E-01       7    6    1        -0.1012686579E+01      0.1033289998E+01
          0                 4           2             7    6     1      -0.3219118579E-02       7    6    1        -0.1787923889E+00      0.1951463697E+00
          0                 5           2             7    6     1      -0.5695710168E-03       7    6    1        -0.3160865528E-01      0.4678921491E-01
          0                 6           2             8    3     1       0.1215679201E-03       7    6    1        -0.5594887996E-02      0.1641558827E-01
          0                 7           1             8    3     1       0.5456119299E-04       8    3    1         0.1418621869E-02      0.6981807513E-02
          0                 8           1             8    3     1       0.2448743121E-04       8    3    1         0.6366936553E-03      0.3100336172E-02
          0                 9           1             8    3     1       0.1098998467E-04       8    3    1         0.2857517440E-03      0.1386800192E-02
          0                10           1             8    3     1       0.4932254553E-05       8    3    1         0.1282453911E-03      0.6210696482E-03

    ------------------------------------------------
       NWT REQUIRED           10 OUTER ITERATIONS 
       AND A TOTAL OF         16 INNER ITERATIONS.
    ------------------------------------------------

 NO OUTPUT CONTROL FOR STRESS PERIOD    7   TIME STEP   19
 
 SOLVING FOR HEAD 
                                                   Max.-Head-Change                         Max.-Flux-Residual
  Residual-Control   Outer-Iter.   Inner-Iter.     Column Row Layer    Maximum-Head-Change  Column Row Layer    Maximum-Flux-Residual          L2-NORM 
          0                 1           2             7    6     1      -0.2886519736E+00       7    6    1        -0.1573201332E+02      0.1584875482E+02
          0                 2           2             7    6     1       0.3170233977E+00       7    6    1         0.1745118838E+02      0.1745764557E+02
          0                 3           2             7    6     1      -0.1821686323E-01       7    6    1        -0.1012689180E+01      0.1033261214E+01
          0                 4           2             7    6     1      -0.3219120297E-02       7    6    1        -0.1787926305E+00      0.1951142259E+00
          0                 5           2             7    6     1      -0.5695706700E-03       7    6    1        -0.3160866071E-01      0.4676221209E-01
          0                 6           2             8    3     1       0.1213565703E-03       7    6    1        -0.5594882662E-02      0.1640016985E-01
          0                 7           1             8    3     1       0.5446635614E-04       8    3    1         0.1416155631E-02      0.6974547879E-02
          0                 8           1             8    3     1       0.2444487744E-04       8    3    1         0.6355870105E-03      0.3097062060E-02
          0                 9           1             8    3     1       0.1097089144E-04       8    3    1         0.2852551911E-03      0.1385333919E-02
          0                10           1             8    3     1       0.4923687625E-05       8    3    1         0.1280225908E-03      0.6204129879E-03

    ------------------------------------------------
       NWT REQUIRED           10 OUTER ITERATIONS 
       AND A TOTAL OF         16 INNER ITERATIONS.
    ------------------------------------------------

 NO OUTPUT CONTROL FOR STRESS PERIOD    7   TIME STEP   20
 
 SOLVING FOR HEAD 
                                                   Max.-Head-Change                         Max.-Flux-Residual
  Residual-Control   Outer-Iter.   Inner-Iter.     Column Row Layer    Maximum-Head-Change  Column Row Layer    Maximum-Flux-Residual          L2-NORM 
          0                 1           2             7    6     1      -0.2886531065E+00       7    6    1        -0.1573209225E+02      0.1584835060E+02
          0                 2           2             7    6     1       0.3170229282E+00       7    6    1         0.1745117632E+02      0.1745762072E+02
          0                 3           2             7    6     1      -0.1821689655E-01       7    6    1        -0.1012691889E+01      0.1033233062E+01
          0                 4           2             7    6     1      -0.3219122323E-02       7    6    1        -0.1787928900E+00      0.1950825292E+00
          0                 5           2             7    6     1      -0.5695703739E-03       7    6    1        -0.3160866908E-01      0.4673555415E-01
          0                 6           2             8    3     1       0.1211462086E-03       7    6    1        -0.5594877815E-02      0.1638494104E-01
          0                 7           1             8    3     1       0.5437196623E-04       8    3    1         0.1413700942E-02      0.6967376457E-02
          0                 8           1             8    3     1       0.2440252576E-04       8    3    1         0.6344855878E-03      0.3093827467E-02
          0                 9           1             8    3     1       0.1095188925E-04       8    3    1         0.2847609981E-03      0.1383885700E-02
          0                10           1             8    3     1       0.4915162340E-05       8    3    1         0.1278008637E-03      0.6197652651E-03

    ------------------------------------------------
       NWT REQUIRED           10 OUTER ITERATIONS 
       AND A TOTAL OF         16 INNER ITERATIONS.
    ------------------------------------------------

 NO OUTPUT CONTROL FOR STRESS PERIOD    7   TIME STEP   21
 
 SOLVING FOR HEAD 
                                                   Max.-Head-Change                         Max.-Flux-Residual
  Residual-Control   Outer-Iter.   Inner-Iter.     Column Row Layer    Maximum-Head-Change  Column Row Layer    Maximum-Flux-Residual          L2-NORM 
          0                 1           2             7    6     1      -0.2886540751E+00       7    6    1        -0.1573216232E+02      0.1584798891E+02
          0                 2           2             7    6     1       0.3170224594E+00       7    6    1         0.1745116430E+02      0.1745759650E+02
          0                 3           2             7    6     1      -0.1821690363E-01       7    6    1        -0.1012693154E+01      0.1033203924E+01
          0                 4           2             7    6     1      -0.3219119644E-02       7    6    1        -0.1787928905E+00      0.1950508958E+00
          0                 5           2             7    6     1      -0.5695692360E-03       7    6    1        -0.3160863107E-01      0.4670909221E-01
          0                 6           2             8    3     1       0.1209368043E-03       7    6    1        -0.5594864664E-02      0.1636983229E-01
          0                 7           1             8    3     1       0.5427800651E-04       8    3    1         0.1411257433E-02      0.6960261380E-02
          0                 8           1             8    3     1       0.2436036755E-04       8    3    1         0.6333891931E-03      0.3090618212E-02
          0                 9           1             8    3     1       0.1093297448E-04       8    3    1         0.2842690671E-03      0.1382448590E-02
          0                10           1             8    3     1       0.4906675947E-05       8    3    1         0.1275801464E-03      0.6191225358E-03

    ------------------------------------------------
       NWT REQUIRED           10 OUTER ITERATIONS 
       AND A TOTAL OF         16 INNER ITERATIONS.
    ------------------------------------------------

 NO OUTPUT CONTROL FOR STRESS PERIOD    7   TIME STEP   22
 
 SOLVING FOR HEAD 
                                                   Max.-Head-Change                         Max.-Flux-Residual
  Residual-Control   Outer-Iter.   Inner-Iter.     Column Row Layer    Maximum-Head-Change  Column Row Layer    Maximum-Flux-Residual          L2-NORM 
          0                 1           2             7    6     1      -0.2886547765E+00       7    6    1        -0.1573221767E+02      0.1584766310E+02
          0                 2           2             7    6     1       0.3170219784E+00       7    6    1         0.1745115164E+02      0.1745757215E+02
          0                 3           2             7    6     1      -0.1821685887E-01       7    6    1        -0.1012691546E+01      0.1033172408E+01
          0                 4           2             7    6     1      -0.3219107758E-02       7    6    1        -0.1787923811E+00      0.1950192172E+00
          0                 5           2             7    6     1      -0.5695664602E-03       7    6    1        -0.3160850243E-01      0.4668291100E-01
          0                 6           2             8    3     1       0.1207269418E-03       7    6    1        -0.5594835400E-02      0.1635490690E-01
          0                 7           1             8    3     1       0.5418384746E-04       8    3    1         0.1408808599E-02      0.6953233679E-02
          0                 8           1             8    3     1       0.2431812304E-04       8    3    1         0.6322904937E-03      0.3087448024E-02
          0                 9           1             8    3     1       0.1091402206E-04       8    3    1         0.2837761405E-03      0.1381028946E-02
          0                10           1             8    3     1       0.4898173672E-05       8    3    1         0.1273590070E-03      0.6184870386E-03

    ------------------------------------------------
       NWT REQUIRED           10 OUTER ITERATIONS 
       AND A TOTAL OF         16 INNER ITERATIONS.
    ------------------------------------------------

 NO OUTPUT CONTROL FOR STRESS PERIOD    7   TIME STEP   23
 
 SOLVING FOR HEAD 
                                                   Max.-Head-Change                         Max.-Flux-Residual
  Residual-Control   Outer-Iter.   Inner-Iter.     Column Row Layer    Maximum-Head-Change  Column Row Layer    Maximum-Flux-Residual          L2-NORM 
          0                 1           2             7    6     1      -0.2886554589E+00       7    6    1        -0.1573227200E+02      0.1584738157E+02
          0                 2           2             7    6     1       0.3170215096E+00       7    6    1         0.1745113968E+02      0.1745754909E+02
          0                 3           2             7    6     1      -0.1821682110E-01       7    6    1        -0.1012690334E+01      0.1033141765E+01
          0                 4           2             7    6     1      -0.3219097076E-02       7    6    1        -0.1787919396E+00      0.1949879934E+00
          0                 5           2             7    6     1      -0.5695638929E-03       7    6    1        -0.3160838554E-01      0.4665704948E-01
          0                 6           2             8    3     1       0.1205181324E-03       7    6    1        -0.5594808163E-02      0.1634015475E-01
          0                 7           1             8    3     1       0.5409016712E-04       8    3    1         0.1406372085E-02      0.6946286310E-02
          0                 8           1             8    3     1       0.2427609563E-04       8    3    1         0.6311973759E-03      0.3084314077E-02
          0                 9           1             8    3     1       0.1089516757E-04       8    3    1         0.2832857363E-03      0.1379624839E-02
          0                10           1             8    3     1       0.4889715542E-05       8    3    1         0.1271390093E-03      0.6178592304E-03

    ------------------------------------------------
       NWT REQUIRED           10 OUTER ITERATIONS 
       AND A TOTAL OF         16 INNER ITERATIONS.
    ------------------------------------------------

 NO OUTPUT CONTROL FOR STRESS PERIOD    7   TIME STEP   24
 
 SOLVING FOR HEAD 
                                                   Max.-Head-Change                         Max.-Flux-Residual
  Residual-Control   Outer-Iter.   Inner-Iter.     Column Row Layer    Maximum-Head-Change  Column Row Layer    Maximum-Flux-Residual          L2-NORM 
          0                 1           2             7    6     1      -0.2886560110E+00       7    6    1        -0.1573231905E+02      0.1584712435E+02
          0                 2           2             7    6     1       0.3170210404E+00       7    6    1         0.1745112774E+02      0.1745752636E+02
          0                 3           2             7    6     1      -0.1821676317E-01       7    6    1        -0.1012688005E+01      0.1033110349E+01
          0                 4           2             7    6     1      -0.3219082810E-02       7    6    1        -0.1787912999E+00      0.1949568711E+00
          0                 5           2             7    6     1      -0.5695606883E-03       7    6    1        -0.3160823340E-01      0.4663138704E-01
          0                 6           2             8    3     1       0.1203103135E-03       7    6    1        -0.5594774663E-02      0.1632552236E-01
          0                 7           1             8    3     1       0.5399693085E-04       8    3    1         0.1403947133E-02      0.6939395413E-02
          0                 8           1             8    3     1       0.2423426694E-04       8    3    1         0.6301094435E-03      0.3081205370E-02
          0                 9           1             8    3     1       0.1087640299E-04       8    3    1         0.2827976643E-03      0.1378232482E-02
          0                10           1             8    3     1       0.4881297930E-05       8    3    1         0.1269200512E-03      0.6172360813E-03

    ------------------------------------------------
       NWT REQUIRED           10 OUTER ITERATIONS 
       AND A TOTAL OF         16 INNER ITERATIONS.
    ------------------------------------------------

 NO OUTPUT CONTROL FOR STRESS PERIOD    7   TIME STEP   25
 
 SOLVING FOR HEAD 
                                                   Max.-Head-Change                         Max.-Flux-Residual
  Residual-Control   Outer-Iter.   Inner-Iter.     Column Row Layer    Maximum-Head-Change  Column Row Layer    Maximum-Flux-Residual          L2-NORM 
          0                 1           2             7    6     1      -0.2886564396E+00       7    6    1        -0.1573235950E+02      0.1584689995E+02
          0                 2           2             7    6     1       0.3170205722E+00       7    6    1         0.1745111586E+02      0.1745750416E+02
          0                 3           2             7    6     1      -0.1821668574E-01       7    6    1        -0.1012684605E+01      0.1033078357E+01
          0                 4           2             7    6     1      -0.3219065039E-02       7    6    1        -0.1787904674E+00      0.1949259932E+00
          0                 5           2             7    6     1      -0.5695568537E-03       7    6    1        -0.3160804661E-01      0.4660603847E-01
          0                 6           2             8    3     1       0.1201021035E-03       7    6    1        -0.5594734942E-02      0.1631107303E-01
          0                 7           1             8    3     1       0.5390352813E-04       8    3    1         0.1401517652E-02      0.6932590282E-02
          0                 8           1             8    3     1       0.2419236771E-04       8    3    1         0.6290195813E-03      0.3078135075E-02
          0                 9           1             8    3     1       0.1085760802E-04       8    3    1         0.2823087663E-03      0.1376857226E-02
          0                10           1             8    3     1       0.4872866436E-05       8    3    1         0.1267007444E-03      0.6166218563E-03

    ------------------------------------------------
       NWT REQUIRED           10 OUTER ITERATIONS 
       AND A TOTAL OF         16 INNER ITERATIONS.
    ------------------------------------------------

 NO OUTPUT CONTROL FOR STRESS PERIOD    7   TIME STEP   26
 
 SOLVING FOR HEAD 
                                                   Max.-Head-Change                         Max.-Flux-Residual
  Residual-Control   Outer-Iter.   Inner-Iter.     Column Row Layer    Maximum-Head-Change  Column Row Layer    Maximum-Flux-Residual          L2-NORM 
          0                 1           2             7    6     1      -0.2886567543E+00       7    6    1        -0.1573239360E+02      0.1584669457E+02
          0                 2           2             7    6     1       0.3170201041E+00       7    6    1         0.1745110402E+02      0.1745748238E+02
          0                 3           2             7    6     1      -0.1821659094E-01       7    6    1        -0.1012680244E+01      0.1033045815E+01
          0                 4           2             7    6     1      -0.3219044181E-02       7    6    1        -0.1787894642E+00      0.1948953288E+00
          0                 5           2             7    6     1      -0.5695524704E-03       7    6    1        -0.3160782947E-01      0.4658099742E-01
          0                 6           2             8    3     1       0.1199841127E-03       7    6    1        -0.5594689832E-02      0.1629682706E-01
          0                 7           1             8    3     1       0.5385831643E-04       8    3    1         0.1400177294E-02      0.6925891270E-02
          0                 8           1             8    3     1       0.2417557188E-04       8    3    1         0.6285084824E-03      0.3075117684E-02
          0                 9           1             8    3     1       0.1085164762E-04       8    3    1         0.2821202165E-03      0.1375508122E-02
          0                10           1             8    3     1       0.4870903690E-05       8    3    1         0.1266345509E-03      0.6160180997E-03

    ------------------------------------------------
       NWT REQUIRED           10 OUTER ITERATIONS 
       AND A TOTAL OF         16 INNER ITERATIONS.
    ------------------------------------------------

 NO OUTPUT CONTROL FOR STRESS PERIOD    7   TIME STEP   27
 
 SOLVING FOR HEAD 
                                                   Max.-Head-Change                         Max.-Flux-Residual
  Residual-Control   Outer-Iter.   Inner-Iter.     Column Row Layer    Maximum-Head-Change  Column Row Layer    Maximum-Flux-Residual          L2-NORM 
          0                 1           2             7    6     1      -0.2886568509E+00       7    6    1        -0.1573241561E+02      0.1584650282E+02
          0                 2           2             7    6     1       0.3170196243E+00       7    6    1         0.1745109158E+02      0.1745746026E+02
          0                 3           2             7    6     1      -0.1821645270E-01       7    6    1        -0.1012673474E+01      0.1033011265E+01
          0                 4           2             7    6     1      -0.3219015617E-02       7    6    1        -0.1787880338E+00      0.1948646140E+00
          0                 5           2             7    6     1      -0.5695467190E-03       7    6    1        -0.3160753657E-01      0.4655614978E-01
          0                 6           2             8    3     1       0.1198015086E-03       7    6    1        -0.5594631256E-02      0.1628268999E-01
          0                 7           1             8    3     1       0.5377630840E-04       8    3    1         0.1398046158E-02      0.6919234186E-02
          0                 8           1             8    3     1       0.2413874353E-04       8    3    1         0.6275513900E-03      0.3072114126E-02
          0                 9           1             8    3     1       0.1083510940E-04       8    3    1         0.2816904046E-03      0.1374162549E-02
          0                10           1             8    3     1       0.4863477268E-05       8    3    1         0.1264415377E-03      0.6154161183E-03

    ------------------------------------------------
       NWT REQUIRED           10 OUTER ITERATIONS 
       AND A TOTAL OF         16 INNER ITERATIONS.
    ------------------------------------------------

 NO OUTPUT CONTROL FOR STRESS PERIOD    7   TIME STEP   28
 
 SOLVING FOR HEAD 
                                                   Max.-Head-Change                         Max.-Flux-Residual
  Residual-Control   Outer-Iter.   Inner-Iter.     Column Row Layer    Maximum-Head-Change  Column Row Layer    Maximum-Flux-Residual          L2-NORM 
          0                 1           2             7    6     1      -0.2886569724E+00       7    6    1        -0.1573243913E+02      0.1584633787E+02
          0                 2           2             7    6     1       0.3170191579E+00       7    6    1         0.1745107987E+02      0.1745743921E+02
          0                 3           2             7    6     1      -0.1821632884E-01       7    6    1        -0.1012667510E+01      0.1032977742E+01
          0                 4           2             7    6     1      -0.3218989563E-02       7    6    1        -0.1787867440E+00      0.1948341867E+00
          0                 5           2             7    6     1      -0.5695414069E-03       7    6    1        -0.3160726820E-01      0.4653143825E-01
          0                 6           2             8    3     1       0.1196205051E-03       7    6    1        -0.5594576979E-02      0.1626861797E-01
          0                 7           1             8    3     1       0.5369501918E-04       8    3    1         0.1395933699E-02      0.6912606649E-02
          0                 8           1             8    3     1       0.2410223782E-04       8    3    1         0.6266026885E-03      0.3069124048E-02
          0                 9           1             8    3     1       0.1081871613E-04       8    3    1         0.2812643654E-03      0.1372840235E-02
          0                10           1             8    3     1       0.4856116125E-05       8    3    1         0.1262502236E-03      0.6148600425E-03

    ------------------------------------------------
       NWT REQUIRED           10 OUTER ITERATIONS 
       AND A TOTAL OF         16 INNER ITERATIONS.
    ------------------------------------------------

 NO OUTPUT CONTROL FOR STRESS PERIOD    7   TIME STEP   29
 
 SOLVING FOR HEAD 
                                                   Max.-Head-Change                         Max.-Flux-Residual
  Residual-Control   Outer-Iter.   Inner-Iter.     Column Row Layer    Maximum-Head-Change  Column Row Layer    Maximum-Flux-Residual          L2-NORM 
          0                 1           2             7    6     1      -0.2886570042E+00       7    6    1        -0.1573245758E+02      0.1584620771E+02
          0                 2           2             7    6     1       0.3170186917E+00       7    6    1         0.1745106822E+02      0.1745741864E+02
          0                 3           2             7    6     1      -0.1821619175E-01       7    6    1        -0.1012660813E+01      0.1032943936E+01
          0                 4           2             7    6     1      -0.3218961158E-02       7    6    1        -0.1787853240E+00      0.1948040378E+00
          0                 5           2             7    6     1      -0.5695356762E-03       7    6    1        -0.3160697670E-01      0.4650702965E-01
          0                 6           2             8    3     1       0.1194400420E-03       7    6    1        -0.5594518584E-02      0.1625472069E-01
          0                 7           1             8    3     1       0.5361397270E-04       8    3    1         0.1393827549E-02      0.6906060937E-02
          0                 8           1             8    3     1       0.2406584128E-04       8    3    1         0.6256568161E-03      0.3066170324E-02
          0                 9           1             8    3     1       0.1080237174E-04       8    3    1         0.2808395899E-03      0.1371499824E-02
          0                10           1             8    3     1       0.4848776616E-05       8    3    1         0.1260594698E-03      0.6142245894E-03

    ------------------------------------------------
       NWT REQUIRED           10 OUTER ITERATIONS 
       AND A TOTAL OF         16 INNER ITERATIONS.
    ------------------------------------------------

 NO OUTPUT CONTROL FOR STRESS PERIOD    7   TIME STEP   30



 STREAM LISTING     PERIOD      7   STEP       30

 LAYER ROW COL. STREAM  RCH.  FLOW INTO     FLOW TO   FLOW OUT OF   OVRLND.     DIRECT     STREAM       STREAM     STREAM     STREAM   STREAMBED  STREAMBED
                SEG.NO.  NO.  STRM. RCH.    AQUIFER    STRM. RCH.    RUNOFF     PRECIP       ET          HEAD       DEPTH      WIDTH   CONDCTNC.   GRADIENT

   1    1    1     1     1    6.3000E+01  3.8236E-09   6.3000E+01  0.000E+00  0.000E+00  0.000E+00  1.09461E+03  1.562E+00  1.863E+01  8.382E-10  1.521E+00
   1    2    2     1     2    6.3000E+01  5.9422E-09   6.3000E+01  0.000E+00  0.000E+00  0.000E+00  1.08962E+03  1.560E+00  1.861E+01  1.303E-09  1.520E+00
   1    3    3     1     3    6.3000E+01  5.0953E-09   6.3000E+01  0.000E+00  0.000E+00  0.000E+00  1.08398E+03  1.561E+00  1.862E+01  1.117E-09  1.520E+00
   1    3    4     1     4    6.3000E+01  4.7139E-09   6.3000E+01  0.000E+00  0.000E+00  0.000E+00  1.07897E+03  1.561E+00  1.862E+01  1.034E-09  1.520E+00
   1    4    5     2     1    6.1000E+01  3.9454E-01   6.0605E+01  0.000E+00  0.000E+00  0.000E+00  1.07399E+03  2.058E+00  1.200E+01  7.800E-02  1.686E+00
   1    5    6     2     2    6.0605E+01  3.0307E-01   6.0302E+01  0.000E+00  0.000E+00  0.000E+00  1.06856E+03  2.051E+00  1.200E+01  6.000E-02  1.684E+00
   1    6    6     2     3    6.0302E+01  3.0270E-01   6.0000E+01  0.000E+00  0.000E+00  0.000E+00  1.06384E+03  2.045E+00  1.200E+01  6.000E-02  1.682E+00
   1    7    6     2     4    6.0000E+01  3.0233E-01   5.9697E+01  0.000E+00  0.000E+00  0.000E+00  1.05911E+03  2.039E+00  1.200E+01  6.000E-02  1.680E+00
   1    8    6     2     5    5.9697E+01  3.0196E-01   5.9395E+01  0.000E+00  0.000E+00  0.000E+00  1.05439E+03  2.033E+00  1.200E+01  6.000E-02  1.678E+00
   1    3    5     3     1    2.0000E+00  2.8252E-01   1.7175E+00  0.000E+00  0.000E+00  0.000E+00  1.07555E+03  1.909E+00  9.636E+00  7.227E-02  1.955E+00
   1    3    6     3     2    1.7175E+00  2.4905E-01   1.4684E+00  0.000E+00  0.000E+00  0.000E+00  1.07264E+03  1.727E+00  8.909E+00  6.682E-02  1.864E+00
   1    3    7     3     3    1.4684E+00  1.9718E-01   1.2712E+00  0.000E+00  0.000E+00  0.000E+00  1.06987E+03  1.555E+00  8.218E+00  5.547E-02  1.777E+00
   1    4    8     3     4    1.2712E+00  2.2567E-01   1.0456E+00  0.000E+00  0.000E+00  0.000E+00  1.06682E+03  1.364E+00  7.455E+00  6.709E-02  1.682E+00
   1    5    8     3     5    1.0456E+00  1.5790E-01   8.8768E-01  0.000E+00  0.000E+00  0.000E+00  1.06362E+03  1.164E+00  6.655E+00  4.991E-02  1.582E+00
   1    6    8     3     6    8.8768E-01  5.5980E-02   8.3170E-01  0.000E+00  0.000E+00  0.000E+00  1.06158E+03  1.036E+00  6.145E+00  1.844E-02  1.518E+00
   1    5   10     4     1    1.0000E+01  9.0919E-02   9.9091E+00  0.000E+00  0.000E+00  0.000E+00  1.07836E+03  6.368E-01  1.000E+01  2.500E-02  1.212E+00
   1    5    9     4     2    9.9091E+00  1.8158E-01   9.7275E+00  0.000E+00  0.000E+00  0.000E+00  1.07154E+03  6.315E-01  1.000E+01  5.000E-02  1.211E+00
   1    6    8     4     3    9.7275E+00  1.2689E-01   9.6006E+00  0.000E+00  0.000E+00  0.000E+00  1.06381E+03  6.256E-01  1.000E+01  3.500E-02  1.209E+00
   1    6    8     5     1    1.0432E+01  2.2686E-09   1.0432E+01  0.000E+00  0.000E+00  0.000E+00  1.05868E+03  6.790E-01  1.542E+01  6.166E-10  1.226E+00
   1    7    7     5     2    1.0432E+01  2.8306E-09   1.0432E+01  0.000E+00  0.000E+00  0.000E+00  1.05418E+03  6.784E-01  1.539E+01  7.695E-10  1.226E+00
   1    8    7     5     3    1.0432E+01  1.9868E-09   1.0432E+01  0.000E+00  0.000E+00  0.000E+00  1.04993E+03  6.794E-01  1.543E+01  5.400E-10  1.226E+00
   1    8    6     5     4    1.0432E+01  1.4217E-09   1.0432E+01  0.000E+00  0.000E+00  0.000E+00  1.04693E+03  6.800E-01  1.545E+01  3.863E-10  1.227E+00
   1    9    6     6     1    6.9828E+01  3.1550E-01   6.9512E+01  0.000E+00  0.000E+00  0.000E+00  1.04499E+03  2.258E+00  1.200E+01  6.000E-02  1.753E+00
   1   10    7     6     2    6.9512E+01  3.1513E-01   6.9197E+01  0.000E+00  0.000E+00  0.000E+00  1.04043E+03  2.252E+00  1.200E+01  6.000E-02  1.751E+00
   1   11    7     6     3    6.9197E+01  3.1477E-01   6.8882E+01  0.000E+00  0.000E+00  0.000E+00  1.03588E+03  2.246E+00  1.200E+01  6.000E-02  1.749E+00
   1   12    7     6     4    6.8882E+01  3.1440E-01   6.8568E+01  0.000E+00  0.000E+00  0.000E+00  1.03133E+03  2.240E+00  1.200E+01  6.000E-02  1.747E+00
   1   13    7     6     5    6.8568E+01  1.2566E-01   6.8442E+01  0.000E+00  0.000E+00  0.000E+00  1.02814E+03  2.236E+00  1.200E+01  2.400E-02  1.745E+00
   1   14    9     7     1    1.5000E+02  2.9539E-08   1.5000E+02  0.000E+00  0.000E+00  0.000E+00  1.03986E+03  2.283E+00  5.528E+01  5.591E-09  1.761E+00
   1   13    8     7     2    1.5000E+02  3.2486E-14   1.5000E+02  0.000E+00  0.000E+00  0.000E+00  1.03478E+03  2.283E+00  5.527E+01  6.150E-15  1.761E+00
   1   13    7     7     3    1.5000E+02  2.9539E-08   1.5000E+02  0.000E+00  0.000E+00  0.000E+00  1.02970E+03  2.283E+00  5.528E+01  5.591E-09  1.761E+00
   1   13    6     8     1    2.1844E+02  2.9803E-19   2.1844E+02  0.000E+00  0.000E+00  0.000E+00  1.02511E+03  3.235E+00  4.691E+01  4.780E-20  2.078E+00
   1   13    5     8     2    2.1844E+02  2.9803E-19   2.1844E+02  0.000E+00  0.000E+00  0.000E+00  1.01886E+03  3.235E+00  4.691E+01  4.780E-20  2.078E+00
   1   13    4     8     3    2.1844E+02  2.4696E-21   2.1844E+02  0.000E+00  0.000E+00  0.000E+00  1.01261E+03  3.236E+00  4.693E+01  4.782E-22  1.721E+00
   1   13    3     8     4    2.1844E+02  6.7904E-09   2.1844E+02  0.000E+00  0.000E+00  0.000E+00  1.00637E+03  3.241E+00  4.700E+01  4.789E-09  4.726E-01
   1   13    2     8     5    2.1844E+02 -9.8455E-01   2.1943E+02  0.000E+00  0.000E+00  0.000E+00  1.00012E+03  3.246E+00  4.707E+01  4.796E+00 -6.842E-02
   1   13    1     8     6    2.1943E+02 -1.3738E+00   2.2080E+02  0.000E+00  0.000E+00  0.000E+00  9.95128E+02  3.253E+00  4.716E+01  2.884E+00 -1.588E-01
   1    6    8     9     1    6.5684E-08  0.0000E+00   6.5684E-08  0.000E+00  0.000E+00  0.000E+00  1.07850E+03  7.067E-06  4.000E+00  0.000E+00  1.000E+00





UNSATURATED ZONE PACKAGE VOLUMETRIC BUDGET FOR  TIME STEP    30 STRESS PERIOD    7
  ------------------------------------------------------------------------------



     CUMULATIVE VOLUMES      L**3       RATES FOR THIS TIME STEP      L**3/T
     ------------------                 ------------------------

           IN:                                      IN:
           ---                                      ---
        INFILTRATION =    15590610.1721          INFILTRATION =           0.8475

          OUT:                                     OUT:
          ----                                     ----
              UZF ET =   340063267.9511                UZF ET =          85.6075
        UZF RECHARGE =   447743595.6646          UZF RECHARGE =          27.1197

            IN - OUT =  -772216253.4435              IN - OUT =        -111.8797

          STORAGE:                                 STORAGE:
          --------                                 --------
      STORAGE CHANGE =  -772213825.6269        STORAGE CHANGE =        -111.8797

 PERCENT DISCREPANCY IS DIFFERENCE BETWEEN IN-OUT MINUS CHANGE IN STORAGE
 DIVIDED BY THE AVERAGE OF IN AND OUT TIMES 100

 PERCENT DISCREPANCY =          -0.00     PERCENT DISCREPANCY =           0.00






1
  VOLUMETRIC BUDGET FOR ENTIRE MODEL AT END OF TIME STEP   30, STRESS PERIOD   7
  ------------------------------------------------------------------------------

     CUMULATIVE VOLUMES      L**3       RATES FOR THIS TIME STEP      L**3/T
     ------------------                 ------------------------

           IN:                                      IN:
           ---                                      ---
             STORAGE =     3902055.5000               STORAGE =           0.2388
       CONSTANT HEAD =           0.0000         CONSTANT HEAD =           0.0000
               WELLS =           0.0000                 WELLS =           0.0000
     HEAD DEP BOUNDS =    19469192.0000       HEAD DEP BOUNDS =           1.0427
      STREAM LEAKAGE =    73511480.0000        STREAM LEAKAGE =           4.5577
        UZF RECHARGE =   447743552.0000          UZF RECHARGE =          27.1197
               GW ET =           0.0000                 GW ET =           0.0000
     SURFACE LEAKAGE =           0.0000       SURFACE LEAKAGE =           0.0000

            TOTAL IN =   544626304.0000              TOTAL IN =          32.9589

          OUT:                                     OUT:
          ----                                     ----
             STORAGE =   484799776.0000               STORAGE =          28.9946
       CONSTANT HEAD =           0.0000         CONSTANT HEAD =           0.0000
               WELLS =           0.0000                 WELLS =           0.0000
     HEAD DEP BOUNDS =     5316866.5000       HEAD DEP BOUNDS =           0.2890
      STREAM LEAKAGE =    47331344.0000        STREAM LEAKAGE =           2.3584
        UZF RECHARGE =           0.0000          UZF RECHARGE =           0.0000
               GW ET =     7141271.5000                 GW ET =           1.3149
     SURFACE LEAKAGE =           0.0000       SURFACE LEAKAGE =           0.0000

           TOTAL OUT =   544589248.0000             TOTAL OUT =          32.9568

            IN - OUT =       37056.0000              IN - OUT =       2.0523E-03

 PERCENT DISCREPANCY =           0.01     PERCENT DISCREPANCY =           0.01






         TIME SUMMARY AT END OF TIME STEP   30 IN STRESS PERIOD    7
                    SECONDS     MINUTES      HOURS       DAYS        YEARS
                    -----------------------------------------------------------
   TIME STEP LENGTH  87600.      1460.0      24.333      1.0139     2.77588E-03
 STRESS PERIOD TIME 2.62800E+06  43800.      730.00      30.417     8.32763E-02
         TOTAL TIME 1.83960E+07 3.06600E+05  5110.0      212.92     0.58293    
1
1
                            STRESS PERIOD NO.    8, LENGTH =   2628000.    
                            -----------------------------------------------

                              NUMBER OF TIME STEPS =    30

                               MULTIPLIER FOR DELT =     1.000

                            INITIAL TIME STEP SIZE =   87600.00    

 WELL NO.  LAYER   ROW   COL   STRESS RATE         
 --------------------------------------------------
      1      1      6      4       0.000    
      2      1      6      7       0.000    
      3      1      7      4       0.000    
      4      1      7      5       0.000    
      5      1      8      4       0.000    
      6      1      8      5       0.000    
      7      1      9      4       0.000    
      8      1      9      5       0.000    
      9      1     10      4       0.000    
     10      1     10      5       0.000    

     10 WELLS

 REUSING NON-PARAMETER GHB CELLS FROM LAST STRESS PERIOD

      2 GHB CELLS

 REUSING STREAM SEGMENT DATA FROM LAST STRESS PERIOD



            AREAL INFILTRATION RATE
 READING ON UNIT   19 WITH FORMAT: (10F4.0)            

            1           2           3           4           5           6           7           8           9          10
 ........................................................................................................................
   1   1.0000E-10  2.0000E-10   0.000       0.000       0.000       0.000       0.000       0.000       0.000       0.000    
   2   2.0000E-10  1.0000E-10  2.0000E-10   0.000       0.000      8.0000E-10  8.0000E-10  5.0000E-10   0.000       0.000    
   3    0.000      5.0000E-10  1.0000E-10  1.0000E-10  8.0000E-10  8.0000E-10  5.0000E-10  5.0000E-10   0.000       0.000    
   4   8.0000E-10  5.0000E-10  1.0000E-10  1.0000E-10  1.0000E-10  1.0000E-10  1.0000E-10  1.0000E-10  2.0000E-10   0.000    
   5   8.0000E-10  5.0000E-10  1.0000E-10  1.0000E-10  1.0000E-10  1.0000E-10  1.0000E-10  1.0000E-10  1.0000E-10  1.0000E-10
   6   8.0000E-10  5.0000E-10  5.0000E-10  2.0000E-10  2.0000E-10  1.0000E-10  1.0000E-10  1.0000E-10  1.0000E-10  5.0000E-10
   7   8.0000E-10  5.0000E-10  5.0000E-10  2.0000E-10  2.0000E-10  1.0000E-10  1.0000E-10  2.0000E-10  2.0000E-10   0.000    
   8    0.000      5.0000E-10  5.0000E-10  2.0000E-10  2.0000E-10  1.0000E-10  1.0000E-10  2.0000E-10  5.0000E-10   0.000    
   9    0.000      5.0000E-10  5.0000E-10  2.0000E-10  2.0000E-10  1.0000E-10  1.0000E-10  2.0000E-10  5.0000E-10   0.000    
  10    0.000      5.0000E-10  5.0000E-10  2.0000E-10  2.0000E-10  1.0000E-10  1.0000E-10  2.0000E-10  5.0000E-10  8.0000E-10
  11    0.000      1.0000E-10  1.0000E-10  1.0000E-10  1.0000E-10  1.0000E-10  1.0000E-10  2.0000E-10  5.0000E-10   0.000    
  12   1.0000E-10  1.0000E-10  1.0000E-10  1.0000E-10  1.0000E-10  1.0000E-10  1.0000E-10  1.0000E-10  2.0000E-10   0.000    
  13   1.0000E-10  1.0000E-10  2.0000E-10  2.0000E-10  2.0000E-10  2.0000E-10  2.0000E-10  1.0000E-10  1.0000E-10   0.000    
  14    0.000      2.0000E-10  5.0000E-10  5.0000E-10  5.0000E-10  5.0000E-10  5.0000E-10  2.0000E-10  1.0000E-10   0.000    
  15    0.000       0.000      8.0000E-10  8.0000E-10  8.0000E-10  8.0000E-10   0.000       0.000       0.000       0.000    

                  ET RATE =  8.000000E-08

 USING ET EXTINCTION DEPTH FROM PREVIOUS STRESS PERIOD. CURRENT PERIOD IS:       8

 USING EXTINCTION WATER CONTENT FROM PREVIOUS STRESS PERIOD. CURRENT PERIOD IS:       8
 
 SOLVING FOR HEAD 
                                                   Max.-Head-Change                         Max.-Flux-Residual
  Residual-Control   Outer-Iter.   Inner-Iter.     Column Row Layer    Maximum-Head-Change  Column Row Layer    Maximum-Flux-Residual          L2-NORM 
          0                 1           2             7    6     1      -0.2886653598E+00       7    6    1        -0.1573247150E+02      0.1599615013E+02
          0                 2           2             7    6     1       0.3170153941E+00       7    6    1         0.1745098914E+02      0.1745860003E+02
          0                 3           2             7    6     1      -0.1821769580E-01       7    6    1        -0.1012730604E+01      0.1033033914E+01
          0                 4           2             7    6     1      -0.3219295107E-02       7    6    1        -0.1788014858E+00      0.1947624676E+00
          0                 5           2             7    6     1      -0.5696065356E-03       7    6    1        -0.3161049760E-01      0.4646925185E-01
          0                 6           2             8    3     1       0.1192602157E-03       7    6    1        -0.5595252607E-02      0.1623295933E-01
          0                 7           1             8    3     1       0.5353321822E-04       8    3    1         0.1391728856E-02      0.6895869871E-02
          0                 8           1             8    3     1       0.2402957818E-04       8    3    1         0.6247143647E-03      0.3061619918E-02
          0                 9           1             8    3     1       0.1078608852E-04       8    3    1         0.2804163876E-03      0.1369484623E-02
          0                10           1             8    3     1       0.4841465370E-05       8    3    1         0.1258694414E-03      0.6133330717E-03

    ------------------------------------------------
       NWT REQUIRED           10 OUTER ITERATIONS 
       AND A TOTAL OF         16 INNER ITERATIONS.
    ------------------------------------------------

 NO OUTPUT CONTROL FOR STRESS PERIOD    8   TIME STEP    1
 
 SOLVING FOR HEAD 
                                                   Max.-Head-Change                         Max.-Flux-Residual
  Residual-Control   Outer-Iter.   Inner-Iter.     Column Row Layer    Maximum-Head-Change  Column Row Layer    Maximum-Flux-Residual          L2-NORM 
          0                 1           2             7    6     1      -0.2886761447E+00       7    6    1        -0.1573305285E+02      0.1598478856E+02
          0                 2           2             7    6     1       0.3170144412E+00       7    6    1         0.1745095330E+02      0.1745844096E+02
          0                 3           2             7    6     1      -0.1821900433E-01       7    6    1        -0.1012802633E+01      0.1033039297E+01
          0                 4           2             7    6     1      -0.3219529969E-02       7    6    1        -0.1788144183E+00      0.1947291360E+00
          0                 5           2             7    6     1      -0.5696486759E-03       7    6    1        -0.3161281818E-01      0.4643446448E-01
          0                 6           2             8    3     1       0.1190795310E-03       7    6    1        -0.5595668624E-02      0.1621233016E-01
          0                 7           1             8    3     1       0.5345208445E-04       8    3    1         0.1389620184E-02      0.6886096625E-02
          0                 8           1             8    3     1       0.2399314838E-04       8    3    1         0.6237675063E-03      0.3057209778E-02
          0                 9           1             8    3     1       0.1076973100E-04       8    3    1         0.2799912273E-03      0.1367510592E-02
          0                10           1             8    3     1       0.4834121109E-05       8    3    1         0.1256785454E-03      0.6124507291E-03

    ------------------------------------------------
       NWT REQUIRED           10 OUTER ITERATIONS 
       AND A TOTAL OF         16 INNER ITERATIONS.
    ------------------------------------------------

 NO OUTPUT CONTROL FOR STRESS PERIOD    8   TIME STEP    2
 
 SOLVING FOR HEAD 
                                                   Max.-Head-Change                         Max.-Flux-Residual
  Residual-Control   Outer-Iter.   Inner-Iter.     Column Row Layer    Maximum-Head-Change  Column Row Layer    Maximum-Flux-Residual          L2-NORM 
          0                 1           2             7    6     1      -0.2886862762E+00       7    6    1        -0.1573362359E+02      0.1598778716E+02
          0                 2           2             7    6     1       0.2749070661E-01       7    6    1         0.1513751112E+01      0.1597648595E+01
          0                 3           2             8    3     1       0.1314524103E-02       7    6    1        -0.7297193565E-01      0.1911177921E+00
          0                 4           2             7    6     1       0.1240858117E-02       7    6    1         0.6954157428E-01      0.1031080754E+00
          0                 5           2             7    6     1       0.1057040878E-02       7    6    1         0.5924271310E-01      0.6829445303E-01
          0                 6           2             7    6     1       0.1077750565E-02       7    6    1         0.6040627948E-01      0.6230966030E-01
          0                 7           2             7    6     1       0.1084172231E-02       7    6    1         0.6076628549E-01      0.6117075868E-01
          0                 8           2             7    6     1       0.1091679195E-02       7    6    1         0.6118666756E-01      0.6128782790E-01
          0                 9           2             7    6     1       0.1099181086E-02       7    6    1         0.6160662591E-01      0.6164735124E-01
          0                10           2             7    6     1       0.1106718319E-02       7    6    1         0.6202851696E-01      0.6205730868E-01
                                                   Max.-Head-Change                         Max.-Flux-Residual
  Residual-Control   Outer-Iter.   Inner-Iter.     Column Row Layer    Maximum-Head-Change  Column Row Layer    Maximum-Flux-Residual          L2-NORM 
          0                11           2             7    6     1       0.1114338469E-02       7    6    1         0.6245503323E-01      0.6248155059E-01
          0                12           2             7    6     1       0.1122003969E-02       7    6    1         0.6288407710E-01      0.6291032254E-01
          0                13           2             7    6     1       0.1129734396E-02       7    6    1         0.6331674947E-01      0.6334308343E-01
          0                14           2             7    6     1       0.1137511329E-02       7    6    1         0.6375201903E-01      0.6377847076E-01
          0                15           2             7    6     1       0.1145353063E-02       7    6    1         0.6419091186E-01      0.6421758340E-01
          0                16           2             7    6     1       0.1153258307E-02       7    6    1         0.6463335562E-01      0.6466019345E-01
          0                17           2             7    6     1       0.1161210135E-02       7    6    1         0.6507840163E-01      0.6510541858E-01
          0                18           2             7    6     1       0.1169243763E-02       7    6    1         0.6552802396E-01      0.6555522445E-01
          0                19           2             7    6     1       0.1177305674E-02       7    6    1         0.6597922243E-01      0.6600660805E-01
          0                20           2             7    6     1       0.1185467686E-02       7    6    1         0.6643602296E-01      0.6646359681E-01
                                                   Max.-Head-Change                         Max.-Flux-Residual
  Residual-Control   Outer-Iter.   Inner-Iter.     Column Row Layer    Maximum-Head-Change  Column Row Layer    Maximum-Flux-Residual          L2-NORM 
          0                21           2             7    6     1       0.1193673707E-02       7    6    1         0.6689528087E-01      0.6692303744E-01
          0                22           2             7    6     1       0.1201927681E-02       7    6    1         0.6735721752E-01      0.6738517420E-01
          0                23           2             7    6     1       0.1210263359E-02       7    6    1         0.6782372461E-01      0.6785186003E-01
          0                24           2             7    6     1       0.1218644339E-02       7    6    1         0.6829276139E-01      0.6832108240E-01
          0                25           2             7    6     1       0.1227107211E-02       7    6    1         0.6876637892E-01      0.6879491650E-01
          0                26           2             7    6     1       0.1235632385E-02       7    6    1         0.6924347883E-01      0.6927219225E-01
          0                27           2             7    6     1       0.1244221242E-02       7    6    1         0.6972413848E-01      0.6975305732E-01
          0                28           2             7    6     1       0.1252873682E-02       7    6    1         0.7020835224E-01      0.7023746990E-01
          0                29           2             7    6     1       0.1261589713E-02       7    6    1         0.7069612045E-01      0.7072542783E-01
          0                30           2             7    6     1       0.1270369334E-02       7    6    1         0.7118744298E-01      0.7121694648E-01
                                                   Max.-Head-Change                         Max.-Flux-Residual
  Residual-Control   Outer-Iter.   Inner-Iter.     Column Row Layer    Maximum-Head-Change  Column Row Layer    Maximum-Flux-Residual          L2-NORM 
          0                31           2             7    6     1       0.1279246579E-02       7    6    1         0.7168422706E-01      0.7171397142E-01
          0                32           2             7    6     1       0.1288150985E-02       7    6    1         0.7218252332E-01      0.7221240451E-01
          0                33           2             7    6     1       0.1297121548E-02       7    6    1         0.7268451765E-01      0.7271465046E-01
          0                34           2             7    6     1       0.1306206569E-02       7    6    1         0.7319291671E-01      0.7322324113E-01
          0                35           2             7    6     1       0.1315334581E-02       7    6    1         0.7370371473E-01      0.7373424838E-01
          0                36           2             7    6     1       0.1324510619E-02       7    6    1         0.7421719424E-01      0.7424795168E-01
          0                37           2             7    6     1       0.1333802372E-02       7    6    1         0.7473714982E-01      0.7476810565E-01
          0                38           2             7    6     1       0.1343136873E-02       7    6    1         0.7525949565E-01      0.7529066716E-01
          0                39           2             7    6     1       0.1352553502E-02       7    6    1         0.7578643393E-01      0.7581781233E-01
          0                40           2             7    6     1       0.1362049429E-02       7    6    1         0.7631780575E-01      0.7634942018E-01
                                                   Max.-Head-Change                         Max.-Flux-Residual
  Residual-Control   Outer-Iter.   Inner-Iter.     Column Row Layer    Maximum-Head-Change  Column Row Layer    Maximum-Flux-Residual          L2-NORM 
          0                41           2             7    6     1       0.1371607838E-02       7    6    1         0.7685266853E-01      0.7688447912E-01
          0                42           2             7    6     1       0.1381246930E-02       7    6    1         0.7739204238E-01      0.7742408058E-01
          0                43           2             7    6     1       0.1390965422E-02       7    6    1         0.7793585515E-01      0.7796810985E-01
          0                44           2             7    6     1       0.1400729370E-02       7    6    1         0.7848220447E-01      0.7851468349E-01
          0                45           2             7    6     1       0.1410626259E-02       7    6    1         0.7903599301E-01      0.7906868907E-01
          0                46           2             7    6     1       0.1420547805E-02       7    6    1         0.7959115202E-01      0.7962409399E-01
          0                47           2             7    6     1       0.1430603762E-02       7    6    1         0.8015383249E-01      0.8018699344E-01
          0                48           2             7    6     1       0.1440684271E-02       7    6    1         0.8071787731E-01      0.8075126443E-01
          0                49           2             7    6     1       0.1450865162E-02       7    6    1         0.8128753646E-01      0.8132114919E-01
          0                50           2             7    6     1       0.1461124062E-02       7    6    1         0.8186155557E-01      0.8189540890E-01
                                                   Max.-Head-Change                         Max.-Flux-Residual
  Residual-Control   Outer-Iter.   Inner-Iter.     Column Row Layer    Maximum-Head-Change  Column Row Layer    Maximum-Flux-Residual          L2-NORM 
          0                51           2             7    6     1       0.1471462550E-02       7    6    1         0.8244002321E-01      0.8247410053E-01
          0                52           2             7    6     1       0.1481914556E-02       7    6    1         0.8302484037E-01      0.8305916599E-01
          0                53           2             7    6     1       0.1492409605E-02       7    6    1         0.8361205765E-01      0.8364662729E-01
          0                54           2             7    6     1       0.1503003732E-02       7    6    1         0.8420481540E-01      0.8423962030E-01
          0                55           2             7    6     1       0.1513675960E-02       7    6    1         0.8480193763E-01      0.8483698298E-01
          0                56           2             7    6     1       0.1524444790E-02       7    6    1         0.8540446103E-01      0.8543973899E-01
          0                57           2             7    6     1       0.1535291897E-02       7    6    1         0.8601135849E-01      0.8604690148E-01
          0                58           2             7    6     1       0.1546235593E-02       7    6    1         0.8662365616E-01      0.8665945027E-01
          0                59           2             7    6     1       0.1557257566E-02       7    6    1         0.8724032763E-01      0.8727633409E-01
          0                60           2             7    6     1       0.1568376129E-02       7    6    1         0.8786239907E-01      0.8789868404E-01
                                                   Max.-Head-Change                         Max.-Flux-Residual
  Residual-Control   Outer-Iter.   Inner-Iter.     Column Row Layer    Maximum-Head-Change  Column Row Layer    Maximum-Flux-Residual          L2-NORM 
          0                61           2             7    6     1       0.1579572967E-02       7    6    1         0.8848884400E-01      0.8852539035E-01
          0                62           2             7    6     1       0.1590883419E-02       7    6    1         0.8912164235E-01      0.8915842205E-01
          0                63           2             7    6     1       0.1602253919E-02       7    6    1         0.8975779261E-01      0.8979484400E-01
          0                64           2             7    6     1       0.1613739323E-02       7    6    1         0.9040036840E-01      0.9043765509E-01
          0                65           2             7    6     1       0.1625301704E-02       7    6    1         0.9104724436E-01      0.9108482997E-01
          0                66           2             7    6     1       0.1636977791E-02       7    6    1         0.9170047833E-01      0.9173830699E-01
          0                67           2             7    6     1       0.1648730941E-02       7    6    1         0.9235801693E-01      0.9239612516E-01
          0                68           2             7    6     1       0.1660597792E-02       7    6    1         0.9302191294E-01      0.9306028015E-01
          0                69           2             7    6     1       0.1672558727E-02       7    6    1         0.9369106695E-01      0.9372970615E-01
          0                70           2             7    6     1       0.1684615134E-02       7    6    1         0.9436555673E-01      0.9440445780E-01
                                                   Max.-Head-Change                         Max.-Flux-Residual
  Residual-Control   Outer-Iter.   Inner-Iter.     Column Row Layer    Maximum-Head-Change  Column Row Layer    Maximum-Flux-Residual          L2-NORM 
          0                71           2             7    6     1       0.1696766918E-02       7    6    1         0.9504537669E-01      0.9508454584E-01
          0                72           2             7    6     1       0.1709031105E-02       7    6    1         0.9573148063E-01      0.9577095003E-01
          0                73           2             7    6     1       0.1721372445E-02       7    6    1         0.9642189344E-01      0.9646162412E-01
          0                74           2             7    6     1       0.1733844504E-02       7    6    1         0.9711961610E-01      0.9715963344E-01
          0                75           2             7    6     1       0.1746409439E-02       7    6    1         0.9782252812E-01      0.9786281938E-01
          0                76           2             7    6     1       0.1759069935E-02       7    6    1         0.9853077982E-01      0.9857137562E-01
          0                77           2             7    6     1       0.1771842821E-02       7    6    1         0.9924531403E-01      0.9928618586E-01
          0                78           2             7    6     1       0.1784726906E-02       7    6    1         0.9996606368E-01      0.1000072278E+00
          0                79           2             7    6     1       0.1797722275E-02       7    6    1         0.1006930333E+00      0.1007344912E+00
          0                80           2             7    6     1       0.1810828922E-02       7    6    1         0.1014262224E+00      0.1014679590E+00
                                                   Max.-Head-Change                         Max.-Flux-Residual
  Residual-Control   Outer-Iter.   Inner-Iter.     Column Row Layer    Maximum-Head-Change  Column Row Layer    Maximum-Flux-Residual          L2-NORM 
          0                81           2             7    6     1       0.1824029823E-02       7    6    1         0.1021646771E+00      0.1022067469E+00
          0                82           2             7    6     1       0.1837360233E-02       7    6    1         0.1029103725E+00      0.1029527165E+00
          0                83           2             7    6     1       0.1850783602E-02       7    6    1         0.1036612606E+00      0.1037038921E+00
          0                84           2             7    6     1       0.1864336574E-02       7    6    1         0.1044193940E+00      0.1044623523E+00
          0                85           2             7    6     1       0.1877999522E-02       7    6    1         0.1051836732E+00      0.1052269231E+00
          0                86           2             7    6     1       0.1891790866E-02       7    6    1         0.1059551297E+00      0.1059987153E+00
          0                87           2             7    6     1       0.1905692272E-02       7    6    1         0.1067327362E+00      0.1067766011E+00
          0                88           2             7    6     1       0.1919705043E-02       7    6    1         0.1075165658E+00      0.1075607692E+00
          0                89           2             7    6     1       0.1933846109E-02       7    6    1         0.1083075665E+00      0.1083520709E+00
          0                90           2             7    6     1       0.1948114271E-02       7    6    1         0.1091056708E+00      0.1091504890E+00
                                                   Max.-Head-Change                         Max.-Flux-Residual
  Residual-Control   Outer-Iter.   Inner-Iter.     Column Row Layer    Maximum-Head-Change  Column Row Layer    Maximum-Flux-Residual          L2-NORM 
          0                91           2             7    6     1       0.1962509612E-02       7    6    1         0.1099108834E+00      0.1099560607E+00
          0                92           2             7    6     1       0.1977015101E-02       7    6    1         0.1107222499E+00      0.1107677152E+00
          0                93           2             7    6     1       0.1991665999E-02       7    6    1         0.1115417455E+00      0.1115875560E+00
          0                94           2             7    6     1       0.2006425750E-02       7    6    1         0.1123673219E+00      0.1124134792E+00
          0                95           2             7    6     1       0.2021313977E-02       7    6    1         0.1132000786E+00      0.1132465118E+00
          0                96           2             7    6     1       0.2036329285E-02       7    6    1         0.1140399369E+00      0.1140867482E+00
          0                97           2             7    6     1       0.2051505825E-02       7    6    1         0.1148888096E+00      0.1149359572E+00
          0                98           2             7    6     1       0.2066807119E-02       7    6    1         0.1157446530E+00      0.1157921415E+00
          0                99           2             7    6     1       0.2082235760E-02       7    6    1         0.1166076123E+00      0.1166554482E+00
          0               100           2             7    6     1       0.2097791561E-02       7    6    1         0.1174776770E+00      0.1175258339E+00
                                                   Max.-Head-Change                         Max.-Flux-Residual
  Residual-Control   Outer-Iter.   Inner-Iter.     Column Row Layer    Maximum-Head-Change  Column Row Layer    Maximum-Flux-Residual          L2-NORM 
          0               101           2             7    6     1       0.2113508591E-02       7    6    1         0.1183567550E+00      0.1184052995E+00
          0               102           2             7    6     1       0.2129350372E-02       7    6    1         0.1192428028E+00      0.1192916854E+00
          0               103           2             7    6     1       0.2145319500E-02       7    6    1         0.1201359656E+00      0.1201852094E+00
          0               104           2             7    6     1       0.2161449843E-02       7    6    1         0.1210381404E+00      0.1210877245E+00
          0               105           2             7    6     1       0.2177738993E-02       7    6    1         0.1219491916E+00      0.1219991453E+00
          0               106           2             7    6     1       0.2194153066E-02       7    6    1         0.1228672214E+00      0.1229175464E+00
          0               107           2             7    6     1       0.2210728529E-02       7    6    1         0.1237942721E+00      0.1238449671E+00
          0               108           2             7    6     1       0.2227462784E-02       7    6    1         0.1247301978E+00      0.1247812751E+00
          0               109           2             7    6     1       0.2244356020E-02       7    6    1         0.1256750088E+00      0.1257264469E+00
          0               110           2             7    6     1       0.2261374164E-02       7    6    1         0.1266267966E+00      0.1266785962E+00
                                                   Max.-Head-Change                         Max.-Flux-Residual
  Residual-Control   Outer-Iter.   Inner-Iter.     Column Row Layer    Maximum-Head-Change  Column Row Layer    Maximum-Flux-Residual          L2-NORM 
          0               111           2             7    6     1       0.2278553699E-02       7    6    1         0.1275876045E+00      0.1276398317E+00
          0               112           2             7    6     1       0.2295926086E-02       7    6    1         0.1285591938E+00      0.1286118390E+00
          0               113           2             7    6     1       0.2313420967E-02       7    6    1         0.1295376239E+00      0.1295905460E+00
          0               114           2             7    6     1       0.2331111471E-02       7    6    1         0.1305269905E+00      0.1305803656E+00
          0               115           2             7    6     1       0.2348958329E-02       7    6    1         0.1315250935E+00      0.1315789830E+00
          0               116           2             7    6     1       0.2370097752E-02       7    6    1         0.1327075658E+00      0.1327621887E+00
          0               117           2             7    6     1       0.2397303511E-02       7    6    1         0.1342297125E+00      0.1342848984E+00
          0               118           2             7    6     1       0.2424519855E-02       7    6    1         0.1357523734E+00      0.1358081768E+00
          0               119           2             7    6     1       0.2452110324E-02       7    6    1         0.1372959491E+00      0.1373523964E+00
          0               120           2             7    6     1       0.2480048810E-02       7    6    1         0.1388589813E+00      0.1389160398E+00
                                                   Max.-Head-Change                         Max.-Flux-Residual
  Residual-Control   Outer-Iter.   Inner-Iter.     Column Row Layer    Maximum-Head-Change  Column Row Layer    Maximum-Flux-Residual          L2-NORM 
          0               121           2             7    6     1       0.2508371213E-02       7    6    1         0.1404434808E+00      0.1405011712E+00
          0               122           2             7    6     1       0.2537109030E-02       7    6    1         0.1420512106E+00      0.1421095677E+00
          0               123           2             7    6     1       0.2566191892E-02       7    6    1         0.1436782294E+00      0.1437372370E+00
          0               124           2             7    6     1       0.2595727004E-02       7    6    1         0.1453305403E+00      0.1453901975E+00
          0               125           2             7    6     1       0.2625604530E-02       7    6    1         0.1470019916E+00      0.1470623328E+00
          0               126           2             7    6     1       0.2655968557E-02       7    6    1         0.1487006516E+00      0.1487616701E+00
          0               127           2             7    6     1       0.2686706614E-02       7    6    1         0.1504202208E+00      0.1504819324E+00
          0               128           2             7    6     1       0.2717894855E-02       7    6    1         0.1521649637E+00      0.1522273781E+00
          0               129           2             7    6     1       0.2749493779E-02       7    6    1         0.1539326671E+00      0.1539957834E+00
          0               130           2             7    6     1       0.2781574334E-02       7    6    1         0.1557273035E+00      0.1557911507E+00
                                                   Max.-Head-Change                         Max.-Flux-Residual
  Residual-Control   Outer-Iter.   Inner-Iter.     Column Row Layer    Maximum-Head-Change  Column Row Layer    Maximum-Flux-Residual          L2-NORM 
          0               131           2             7    6     1       0.2814097390E-02       7    6    1         0.1575466805E+00      0.1576112522E+00
          0               132           2             7    6     1       0.2847065742E-02       7    6    1         0.1593909543E+00      0.1594562804E+00
          0               133           2             7    6     1       0.2880547316E-02       7    6    1         0.1612639275E+00      0.1613299657E+00
          0               134           2             7    6     1       0.2914469133E-02       7    6    1         0.1631615125E+00      0.1632283517E+00
          0               135           2             7    6     1       0.2948904537E-02       7    6    1         0.1650878160E+00      0.1651554069E+00
          0               136           2             7    6     1       0.2983848283E-02       7    6    1         0.1670425429E+00      0.1671108982E+00
          0               137           2             7    6     1       0.3019300751E-02       7    6    1         0.1690257137E+00      0.1690949048E+00
          0               138           2             7    6     1       0.3055261910E-02       7    6    1         0.1710373260E+00      0.1711073298E+00
          0               139           2             7    6     1       0.3091765830E-02       7    6    1         0.1730792865E+00      0.1731500500E+00
          0               140           2             7    6     1       0.3128810073E-02       7    6    1         0.1751514577E+00      0.1752230911E+00
                                                   Max.-Head-Change                         Max.-Flux-Residual
  Residual-Control   Outer-Iter.   Inner-Iter.     Column Row Layer    Maximum-Head-Change  Column Row Layer    Maximum-Flux-Residual          L2-NORM 
          0               141           2             7    6     1       0.3173698957E-02       7    6    1         0.1773768200E+00      0.1774488347E+00
          0               142           2             7    6     1       0.3209635086E-02       7    6    1         0.1793832524E+00      0.1794561811E+00
          0               143           2             7    6     1       0.4044539209E-02       7    6    1         0.2260498387E+00      0.2261091731E+00
          0               144           2             7    6     1       0.4263568419E-02       7    6    1         0.2382847893E+00      0.2383437926E+00
          0               145           2             7    6     1       0.4264919552E-02       7    6    1         0.2383556631E+00      0.2384165843E+00
          0               146           2             7    6     1       0.7837091094E-03       7    6    1         0.4376933874E-01      0.4409225401E-01
          0               147           2             7    6     1       0.1441460648E-03       7    6    1         0.8045352601E-02      0.9499869857E-02
          0               148           1             2   13     1      -0.7457078400E-04       2   13    1        -0.4300524626E-02      0.5181883930E-02
          0               149           1             2   13     1      -0.7366775086E-04       2   13    1        -0.4248291134E-02      0.4911674911E-02
          0               150           1             2   13     1      -0.7276434062E-04       2   13    1        -0.4196037392E-02      0.4844362344E-02
                                                   Max.-Head-Change                         Max.-Flux-Residual
  Residual-Control   Outer-Iter.   Inner-Iter.     Column Row Layer    Maximum-Head-Change  Column Row Layer    Maximum-Flux-Residual          L2-NORM 
          0               151           1             2   13     1      -0.7185833356E-04       2   13    1        -0.4143635207E-02      0.4784295221E-02
          0               152           1             2   13     1      -0.7099654760E-04       2   13    1        -0.4093794277E-02      0.4726907183E-02
          0               153           1             2   13     1      -0.7011882804E-04       2   13    1        -0.4043034571E-02      0.4668911719E-02
          0               154           1             2   13     1      -0.6927506914E-04       2   13    1        -0.3994243581E-02      0.4612613661E-02
          0               155           1             2   13     1      -0.6844667558E-04       2   13    1        -0.3946345449E-02      0.4557605035E-02
          0               156           1             2   13     1      -0.6761215719E-04       2   13    1        -0.3898082188E-02      0.4502402046E-02
          0               157           1             2   13     1      -0.6679889601E-04       2   13    1        -0.3851062022E-02      0.4448616893E-02
          0               158           1             2   13     1      -0.6593482125E-04       2   13    1        -0.3801105108E-02      0.4392167008E-02
          0               159           1             2   13     1      -0.6529641225E-04       2   13    1        -0.3764200132E-02      0.4347384624E-02
          0               160           1             2   13     1      -0.6442235587E-04       2   13    1        -0.3713652631E-02      0.4292051613E-02
                                                   Max.-Head-Change                         Max.-Flux-Residual
  Residual-Control   Outer-Iter.   Inner-Iter.     Column Row Layer    Maximum-Head-Change  Column Row Layer    Maximum-Flux-Residual          L2-NORM 
          0               161           1             2   13     1      -0.6367897781E-04       2   13    1        -0.3670711030E-02      0.4240154246E-02
          0               162           1             2   13     1      -0.6291026604E-04       2   13    1        -0.3626258702E-02      0.4190517758E-02
          0               163           1             2   13     1      -0.6217618887E-04       2   13    1        -0.3583828512E-02      0.4141676765E-02
          0               164           1             2   13     1      -0.6143703729E-04       2   13    1        -0.3541104550E-02      0.4092756578E-02
          0               165           1             2   13     1      -0.6072266942E-04       2   13    1        -0.3499817717E-02      0.4045200052E-02
          0               166           1             2   13     1      -0.5999768328E-04       2   13    1        -0.3457901373E-02      0.3998483351E-02
          0               167           1             2   13     1      -0.2731615101E-04       2   13    1        -0.1574188613E-02      0.1846354194E-02
          0               168           1             2   13     1       0.2190711638E-05       2   13    1         0.1275427740E-03      0.1560269291E-03

    ------------------------------------------------
       NWT REQUIRED          168 OUTER ITERATIONS 
       AND A TOTAL OF        315 INNER ITERATIONS.
    ------------------------------------------------

 NO OUTPUT CONTROL FOR STRESS PERIOD    8   TIME STEP    3
 
 SOLVING FOR HEAD 
                                                   Max.-Head-Change                         Max.-Flux-Residual
  Residual-Control   Outer-Iter.   Inner-Iter.     Column Row Layer    Maximum-Head-Change  Column Row Layer    Maximum-Flux-Residual          L2-NORM 
          0                 1           2             1   13     1      -0.2871347622E-01       1   13    1        -0.1567953099E+01      0.2790438717E+01
          0                 2           2             8    3     1       0.2923932210E-02       1   13    1         0.1550227118E+00      0.5169565468E+00
          0                 3           2             8    3     1       0.1312542167E-02       8    3    1         0.3412161055E-01      0.1770081227E+00
          0                 4           2             8    3     1       0.5891890195E-03       8    3    1         0.1531703600E-01      0.7610663849E-01
          0                 5           2             8    3     1       0.2644790141E-03       8    3    1         0.6875673911E-02      0.3388919354E-01
          0                 6           2             8    3     1       0.1187197267E-03       8    3    1         0.3086391152E-02      0.1516516451E-01
          0                 7           1             8    3     1       0.5329047782E-04       8    3    1         0.1385420920E-02      0.6791556187E-02
          0                 8           1             8    3     1       0.2392056191E-04       8    3    1         0.6218813965E-03      0.3042010112E-02
          0                 9           1             8    3     1       0.1073712828E-04       8    3    1         0.2791440755E-03      0.1362638645E-02
          0                10           1             8    3     1       0.4819477608E-05       8    3    1         0.1252980480E-03      0.6104117989E-03

    ------------------------------------------------
       NWT REQUIRED           10 OUTER ITERATIONS 
       AND A TOTAL OF         16 INNER ITERATIONS.
    ------------------------------------------------

 NO OUTPUT CONTROL FOR STRESS PERIOD    8   TIME STEP    4
 
 SOLVING FOR HEAD 
                                                   Max.-Head-Change                         Max.-Flux-Residual
  Residual-Control   Outer-Iter.   Inner-Iter.     Column Row Layer    Maximum-Head-Change  Column Row Layer    Maximum-Flux-Residual          L2-NORM 
          0                 1           2             7    6     1      -0.2887045359E+00       7    6    1        -0.1573465618E+02      0.1597578135E+02
          0                 2           2             7    6     1       0.2756779989E-01       7    6    1         0.1517992644E+01      0.1600114123E+01
          0                 3           2             8    3     1       0.1310566706E-02       7    6    1        -0.6919663075E-01      0.1891593803E+00
          0                 4           2             7    6     1       0.1306926247E-02       7    6    1         0.7324465364E-01      0.1054777502E+00
          0                 5           2             7    6     1       0.1121119259E-02       7    6    1         0.6283434473E-01      0.7138699391E-01
          0                 6           2             7    6     1       0.1139160843E-02       7    6    1         0.6384835184E-01      0.6564486879E-01
          0                 7           2             7    6     1       0.1142962477E-02       7    6    1         0.6406148012E-01      0.6444647258E-01
          0                 8           2             7    6     1       0.1147812076E-02       7    6    1         0.6433289142E-01      0.6443194108E-01
          0                 9           2             7    6     1       0.1152591182E-02       7    6    1         0.6460021437E-01      0.6464209137E-01
          0                10           2             7    6     1       0.1157410221E-02       7    6    1         0.6486973079E-01      0.6490024654E-01
                                                   Max.-Head-Change                         Max.-Flux-Residual
  Residual-Control   Outer-Iter.   Inner-Iter.     Column Row Layer    Maximum-Head-Change  Column Row Layer    Maximum-Flux-Residual          L2-NORM 
          0                11           2             7    6     1       0.1162243802E-02       7    6    1         0.6514004246E-01      0.6516840242E-01
          0                12           2             7    6     1       0.1167110519E-02       7    6    1         0.6541220053E-01      0.6544021694E-01
          0                13           2             7    6     1       0.1171991977E-02       7    6    1         0.6568517711E-01      0.6571320121E-01
          0                14           2             7    6     1       0.1176889440E-02       7    6    1         0.6595904443E-01      0.6598719405E-01
          0                15           2             7    6     1       0.1181819816E-02       7    6    1         0.6623475094E-01      0.6626295928E-01
          0                16           2             7    6     1       0.1186764899E-02       7    6    1         0.6651127623E-01      0.6653962420E-01
          0                17           2             7    6     1       0.1191725965E-02       7    6    1         0.6678869201E-01      0.6681716265E-01
          0                18           2             7    6     1       0.1196702925E-02       7    6    1         0.6706699326E-01      0.6709556365E-01
          0                19           2             7    6     1       0.1201729810E-02       7    6    1         0.6734808761E-01      0.6737679147E-01
          0                20           2             7    6     1       0.1206753187E-02       7    6    1         0.6762897966E-01      0.6765779130E-01
                                                   Max.-Head-Change                         Max.-Flux-Residual
  Residual-Control   Outer-Iter.   Inner-Iter.     Column Row Layer    Maximum-Head-Change  Column Row Layer    Maximum-Flux-Residual          L2-NORM 
          0                21           2             7    6     1       0.1211793827E-02       7    6    1         0.6791083403E-01      0.6793975376E-01
          0                22           2             7    6     1       0.1216901312E-02       7    6    1         0.6819642968E-01      0.6822546767E-01
          0                23           2             7    6     1       0.1221970068E-02       7    6    1         0.6847984871E-01      0.6850900143E-01
          0                24           2             7    6     1       0.1227109610E-02       7    6    1         0.6876723012E-01      0.6879653641E-01
          0                25           2             7    6     1       0.1232244171E-02       7    6    1         0.6905432656E-01      0.6908375176E-01
          0                26           2             7    6     1       0.1237413116E-02       7    6    1         0.6934334471E-01      0.6937284316E-01
          0                27           2             7    6     1       0.1242613673E-02       7    6    1         0.6963412897E-01      0.6966418039E-01
          0                28           2             7    6     1       0.1247812006E-02       7    6    1         0.6992478292E-01      0.6995411749E-01
          0                29           2             7    6     1       0.1253044529E-02       7    6    1         0.7021734760E-01      0.7024727330E-01
          0                30           2             7    6     1       0.1258308676E-02       7    6    1         0.7051167904E-01      0.7054167563E-01
                                                   Max.-Head-Change                         Max.-Flux-Residual
  Residual-Control   Outer-Iter.   Inner-Iter.     Column Row Layer    Maximum-Head-Change  Column Row Layer    Maximum-Flux-Residual          L2-NORM 
          0                31           2             7    6     1       0.1263587615E-02       7    6    1         0.7080683366E-01      0.7083735235E-01
          0                32           2             7    6     1       0.1268865514E-02       7    6    1         0.7110192433E-01      0.7113175831E-01
          0                33           2             7    6     1       0.1274228567E-02       7    6    1         0.7140178195E-01      0.7143222129E-01
          0                34           2             7    6     1       0.1279568608E-02       7    6    1         0.7170034360E-01      0.7173079389E-01
          0                35           2             7    6     1       0.1284927289E-02       7    6    1         0.7199994440E-01      0.7203058505E-01
          0                36           2             7    6     1       0.1290335662E-02       7    6    1         0.7230232646E-01      0.7233307798E-01
          0                37           2             7    6     1       0.1295757437E-02       7    6    1         0.7260545745E-01      0.7263632894E-01
          0                38           2             7    6     1       0.1301195330E-02       7    6    1         0.7290948595E-01      0.7294048969E-01
          0                39           2             7    6     1       0.1306683138E-02       7    6    1         0.7321630606E-01      0.7324741537E-01
          0                40           2             7    6     1       0.1312150409E-02       7    6    1         0.7352196920E-01      0.7355322912E-01
                                                   Max.-Head-Change                         Max.-Flux-Residual
  Residual-Control   Outer-Iter.   Inner-Iter.     Column Row Layer    Maximum-Head-Change  Column Row Layer    Maximum-Flux-Residual          L2-NORM 
          0                41           2             7    6     1       0.1317687200E-02       7    6    1         0.7383152266E-01      0.7386290773E-01
          0                42           2             7    6     1       0.1323202069E-02       7    6    1         0.7413984145E-01      0.7417134166E-01
          0                43           2             7    6     1       0.1328769537E-02       7    6    1         0.7445110231E-01      0.7448274752E-01
          0                44           2             7    6     1       0.1334384349E-02       7    6    1         0.7476501010E-01      0.7479678324E-01
          0                45           2             7    6     1       0.1339978803E-02       7    6    1         0.7507777090E-01      0.7510965000E-01
          0                46           2             7    6     1       0.1345608730E-02       7    6    1         0.7539251386E-01      0.7542454030E-01
          0                47           2             7    6     1       0.1351304227E-02       7    6    1         0.7571092513E-01      0.7574308792E-01
          0                48           2             7    6     1       0.1356961059E-02       7    6    1         0.7602716332E-01      0.7605945163E-01
          0                49           2             7    6     1       0.1362688696E-02       7    6    1         0.7634736355E-01      0.7637975097E-01
          0                50           2             7    6     1       0.1368411332E-02       7    6    1         0.7666727719E-01      0.7669983565E-01
                                                   Max.-Head-Change                         Max.-Flux-Residual
  Residual-Control   Outer-Iter.   Inner-Iter.     Column Row Layer    Maximum-Head-Change  Column Row Layer    Maximum-Flux-Residual          L2-NORM 
          0                51           2             7    6     1       0.1374202399E-02       7    6    1         0.7699101942E-01      0.7702372968E-01
          0                52           2             7    6     1       0.1379971613E-02       7    6    1         0.7731353066E-01      0.7734633145E-01
          0                53           2             7    6     1       0.1385793429E-02       7    6    1         0.7763898357E-01      0.7767193245E-01
          0                54           2             7    6     1       0.1391628548E-02       7    6    1         0.7796517552E-01      0.7799824220E-01
          0                55           2             7    6     1       0.1397496767E-02       7    6    1         0.7829321599E-01      0.7832644831E-01
          0                56           2             7    6     1       0.1403379667E-02       7    6    1         0.7862207275E-01      0.7865542088E-01
          0                57           2             7    6     1       0.1409295568E-02       7    6    1         0.7895277248E-01      0.7898626535E-01
          0                58           2             7    6     1       0.1415243177E-02       7    6    1         0.7928524248E-01      0.7931886207E-01
          0                59           2             7    6     1       0.1421205566E-02       7    6    1         0.7961853418E-01      0.7965230375E-01
          0                60           2             7    6     1       0.1427217970E-02       7    6    1         0.7995462203E-01      0.7998852710E-01
                                                   Max.-Head-Change                         Max.-Flux-Residual
  Residual-Control   Outer-Iter.   Inner-Iter.     Column Row Layer    Maximum-Head-Change  Column Row Layer    Maximum-Flux-Residual          L2-NORM 
          0                61           2             7    6     1       0.1433226837E-02       7    6    1         0.8029050512E-01      0.8032454685E-01
          0                62           2             7    6     1       0.1439269997E-02       7    6    1         0.8062830337E-01      0.8066245801E-01
          0                63           2             7    6     1       0.1445344771E-02       7    6    1         0.8096786651E-01      0.8100219913E-01
          0                64           2             7    6     1       0.1451451352E-02       7    6    1         0.8130920517E-01      0.8134366441E-01
          0                65           2             7    6     1       0.1457589725E-02       7    6    1         0.8165231852E-01      0.8168691465E-01
          0                66           2             7    6     1       0.1463725847E-02       7    6    1         0.8199529921E-01      0.8203003438E-01
          0                67           2             7    6     1       0.1469913194E-02       7    6    1         0.8234114351E-01      0.8237603212E-01
          0                68           2             7    6     1       0.1476113936E-02       7    6    1         0.8268773153E-01      0.8272273594E-01
          0                69           2             7    6     1       0.1482364794E-02       7    6    1         0.8303712090E-01      0.8307233242E-01
          0                70           2             7    6     1       0.1488612105E-02       7    6    1         0.8338630464E-01      0.8342158137E-01
                                                   Max.-Head-Change                         Max.-Flux-Residual
  Residual-Control   Outer-Iter.   Inner-Iter.     Column Row Layer    Maximum-Head-Change  Column Row Layer    Maximum-Flux-Residual          L2-NORM 
          0                71           2             7    6     1       0.1494910733E-02       7    6    1         0.8373835699E-01      0.8377379170E-01
          0                72           2             7    6     1       0.1501222749E-02       7    6    1         0.8409115251E-01      0.8412676722E-01
          0                73           2             7    6     1       0.1507567861E-02       7    6    1         0.8444579557E-01      0.8448154195E-01
          0                74           2             7    6     1       0.1513944674E-02       7    6    1         0.8480220783E-01      0.8483807829E-01
          0                75           2             7    6     1       0.1520353285E-02       7    6    1         0.8516039473E-01      0.8519643762E-01
          0                76           2             7    6     1       0.1526776667E-02       7    6    1         0.8551940220E-01      0.8555558258E-01
          0                77           2             7    6     1       0.1533233047E-02       7    6    1         0.8588025157E-01      0.8591658803E-01
          0                78           2             7    6     1       0.1539721134E-02       7    6    1         0.8624287033E-01      0.8627932766E-01
          0                79           2             7    6     1       0.1546223997E-02       7    6    1         0.8660630989E-01      0.8664293877E-01
          0                80           2             7    6     1       0.1552776882E-02       7    6    1         0.8697254488E-01      0.8700932726E-01
                                                   Max.-Head-Change                         Max.-Flux-Residual
  Residual-Control   Outer-Iter.   Inner-Iter.     Column Row Layer    Maximum-Head-Change  Column Row Layer    Maximum-Flux-Residual          L2-NORM 
          0                81           2             7    6     1       0.1559343244E-02       7    6    1         0.8733952769E-01      0.8737643006E-01
          0                82           2             7    6     1       0.1565942697E-02       7    6    1         0.8770835738E-01      0.8774544777E-01
          0                83           2             7    6     1       0.1572573852E-02       7    6    1         0.8807895586E-01      0.8811619083E-01
          0                84           2             7    6     1       0.1579219780E-02       7    6    1         0.8845037489E-01      0.8848773501E-01
          0                85           2             7    6     1       0.1585915733E-02       7    6    1         0.8882458921E-01      0.8886212787E-01
          0                86           2             7    6     1       0.1592625160E-02       7    6    1         0.8919955105E-01      0.8923725420E-01
          0                87           2             7    6     1       0.1599367680E-02       7    6    1         0.8957635961E-01      0.8961417388E-01
          0                88           2             7    6     1       0.1606141901E-02       7    6    1         0.8995493670E-01      0.8999293776E-01
          0                89           2             7    6     1       0.1612947920E-02       7    6    1         0.9033528778E-01      0.9037342452E-01
          0                90           2             7    6     1       0.1619785731E-02       7    6    1         0.9071741244E-01      0.9075569609E-01
                                                   Max.-Head-Change                         Max.-Flux-Residual
  Residual-Control   Outer-Iter.   Inner-Iter.     Column Row Layer    Maximum-Head-Change  Column Row Layer    Maximum-Flux-Residual          L2-NORM 
          0                91           2             7    6     1       0.1626638310E-02       7    6    1         0.9110035703E-01      0.9113882177E-01
          0                92           2             7    6     1       0.1633523890E-02       7    6    1         0.9148514295E-01      0.9152376568E-01
          0                93           2             7    6     1       0.1640441176E-02       7    6    1         0.9187169752E-01      0.9191047375E-01
          0                94           2             7    6     1       0.1647390261E-02       7    6    1         0.9226002590E-01      0.9229895973E-01
          0                95           2             7    6     1       0.1654388164E-02       7    6    1         0.9265108128E-01      0.9269014280E-01
          0                96           2             7    6     1       0.1661382597E-02       7    6    1         0.9304193472E-01      0.9308117982E-01
          0                97           2             7    6     1       0.1668428356E-02       7    6    1         0.9343565578E-01      0.9347505472E-01
          0                98           2             7    6     1       0.1675504517E-02       7    6    1         0.9383107212E-01      0.9387063530E-01
          0                99           2             7    6     1       0.1682595544E-02       7    6    1         0.9422731355E-01      0.9426725585E-01
          0               100           2             7    6     1       0.1689753619E-02       7    6    1         0.9462730295E-01      0.9466697717E-01
                                                   Max.-Head-Change                         Max.-Flux-Residual
  Residual-Control   Outer-Iter.   Inner-Iter.     Column Row Layer    Maximum-Head-Change  Column Row Layer    Maximum-Flux-Residual          L2-NORM 
          0               101           2             7    6     1       0.1696906927E-02       7    6    1         0.9502701744E-01      0.9506701299E-01
          0               102           2             7    6     1       0.1704094627E-02       7    6    1         0.9542865087E-01      0.9546893752E-01
          0               103           2             7    6     1       0.1711313933E-02       7    6    1         0.9583204687E-01      0.9587242421E-01
          0               104           2             7    6     1       0.1718565046E-02       7    6    1         0.9623721661E-01      0.9627773275E-01
          0               105           2             7    6     1       0.1725847948E-02       7    6    1         0.9664415911E-01      0.9668487639E-01
          0               106           2             7    6     1       0.1733162644E-02       7    6    1         0.9705287453E-01      0.9709374033E-01
          0               107           2             7    6     1       0.1740509132E-02       7    6    1         0.9746336274E-01      0.9750439411E-01
          0               108           2             7    6     1       0.1747887411E-02       7    6    1         0.9787562367E-01      0.9791681495E-01
          0               109           2             7    6     1       0.1755297483E-02       7    6    1         0.9828965731E-01      0.9833104766E-01
          0               110           2             7    6     1       0.1762739347E-02       7    6    1         0.9870546359E-01      0.9874700383E-01
                                                   Max.-Head-Change                         Max.-Flux-Residual
  Residual-Control   Outer-Iter.   Inner-Iter.     Column Row Layer    Maximum-Head-Change  Column Row Layer    Maximum-Flux-Residual          L2-NORM 
          0               111           2             7    6     1       0.1770213003E-02       7    6    1         0.9912304249E-01      0.9916473787E-01
          0               112           2             7    6     1       0.1777718451E-02       7    6    1         0.9954239393E-01      0.9958428509E-01
          0               113           2             7    6     1       0.1785255691E-02       7    6    1         0.9996351785E-01      0.1000055537E+00
          0               114           2             7    6     1       0.1792824723E-02       7    6    1         0.1003864142E+00      0.1004286174E+00
          0               115           2             7    6     1       0.1800425547E-02       7    6    1         0.1008110830E+00      0.1008534843E+00
          0               116           2             7    6     1       0.1808058163E-02       7    6    1         0.1012375242E+00      0.1012800798E+00
          0               117           2             7    6     1       0.1815722571E-02       7    6    1         0.1016657376E+00      0.1017084798E+00
          0               118           2             7    6     1       0.1823418771E-02       7    6    1         0.1020957233E+00      0.1021386169E+00
          0               119           2             7    6     1       0.1831146762E-02       7    6    1         0.1025274812E+00      0.1025705460E+00
          0               120           2             7    6     1       0.1838906545E-02       7    6    1         0.1029610112E+00      0.1030042746E+00
                                                   Max.-Head-Change                         Max.-Flux-Residual
  Residual-Control   Outer-Iter.   Inner-Iter.     Column Row Layer    Maximum-Head-Change  Column Row Layer    Maximum-Flux-Residual          L2-NORM 
          0               121           2             7    6     1       0.1846698121E-02       7    6    1         0.1033963133E+00      0.1034397486E+00
          0               122           2             7    6     1       0.1854521487E-02       7    6    1         0.1038333875E+00      0.1038769890E+00
          0               123           2             7    6     1       0.1862376646E-02       7    6    1         0.1042722337E+00      0.1043160102E+00
          0               124           2             7    6     1       0.1870263596E-02       7    6    1         0.1047128519E+00      0.1047568128E+00
          0               125           2             7    6     1       0.1878182338E-02       7    6    1         0.1051552419E+00      0.1051993785E+00
          0               126           2             7    6     1       0.1886132871E-02       7    6    1         0.1055994038E+00      0.1056437077E+00
          0               127           2             7    6     1       0.1894115196E-02       7    6    1         0.1060453376E+00      0.1060898363E+00
          0               128           2             7    6     1       0.1902129312E-02       7    6    1         0.1064930430E+00      0.1065377050E+00
          0               129           2             7    6     1       0.1910175220E-02       7    6    1         0.1069425202E+00      0.1069873651E+00
          0               130           2             7    6     1       0.1918252919E-02       7    6    1         0.1073937690E+00      0.1074388108E+00
                                                   Max.-Head-Change                         Max.-Flux-Residual
  Residual-Control   Outer-Iter.   Inner-Iter.     Column Row Layer    Maximum-Head-Change  Column Row Layer    Maximum-Flux-Residual          L2-NORM 
          0               131           2             7    6     1       0.1926362411E-02       7    6    1         0.1078467894E+00      0.1078919963E+00
          0               132           2             7    6     1       0.1934503693E-02       7    6    1         0.1083015814E+00      0.1083469850E+00
          0               133           2             7    6     1       0.1942676766E-02       7    6    1         0.1087581449E+00      0.1088037093E+00
          0               134           2             7    6     1       0.1950915696E-02       7    6    1         0.1092183872E+00      0.1092641590E+00
          0               135           2             7    6     1       0.1959149918E-02       7    6    1         0.1096783570E+00      0.1097243049E+00
          0               136           2             7    6     1       0.1967418541E-02       7    6    1         0.1101402445E+00      0.1101863657E+00
          0               137           2             7    6     1       0.1975718767E-02       7    6    1         0.1106038928E+00      0.1106502119E+00
          0               138           2             7    6     1       0.1984050798E-02       7    6    1         0.1110693131E+00      0.1111158235E+00
          0               139           2             7    6     1       0.1992448685E-02       7    6    1         0.1115384120E+00      0.1115850894E+00
          0               140           2             7    6     1       0.2000841862E-02       7    6    1         0.1120072379E+00      0.1120541131E+00
                                                   Max.-Head-Change                         Max.-Flux-Residual
  Residual-Control   Outer-Iter.   Inner-Iter.     Column Row Layer    Maximum-Head-Change  Column Row Layer    Maximum-Flux-Residual          L2-NORM 
          0               141           2             7    6     1       0.2009269440E-02       7    6    1         0.1124779815E+00      0.1125250495E+00
          0               142           2             7    6     1       0.2017728622E-02       7    6    1         0.1129504855E+00      0.1129977416E+00
          0               143           2             7    6     1       0.2026253675E-02       7    6    1         0.1134266687E+00      0.1134741103E+00
          0               144           2             7    6     1       0.2034774015E-02       7    6    1         0.1139025788E+00      0.1139502116E+00
          0               145           2             7    6     1       0.2043328757E-02       7    6    1         0.1143804062E+00      0.1144282063E+00
          0               146           2             7    6     1       0.2051915103E-02       7    6    1         0.1148599940E+00      0.1149080172E+00
          0               147           2             7    6     1       0.2060567321E-02       7    6    1         0.1153432608E+00      0.1153914555E+00
          0               148           2             7    6     1       0.2069214822E-02       7    6    1         0.1158262540E+00      0.1158746425E+00
          0               149           2             7    6     1       0.2077896729E-02       7    6    1         0.1163111646E+00      0.1163597721E+00
          0               150           2             7    6     1       0.2086644307E-02       7    6    1         0.1167997427E+00      0.1168485217E+00
                                                   Max.-Head-Change                         Max.-Flux-Residual
  Residual-Control   Outer-Iter.   Inner-Iter.     Column Row Layer    Maximum-Head-Change  Column Row Layer    Maximum-Flux-Residual          L2-NORM 
          0               151           2             7    6     1       0.2095387180E-02       7    6    1         0.1172880480E+00      0.1173370130E+00
          0               152           2             7    6     1       0.2104164459E-02       7    6    1         0.1177782704E+00      0.1178274560E+00
          0               153           2             7    6     1       0.2112973340E-02       7    6    1         0.1182702528E+00      0.1183196190E+00
          0               154           2             7    6     1       0.2121814024E-02       7    6    1         0.1187640064E+00      0.1188135368E+00
          0               155           2             7    6     1       0.2130720570E-02       7    6    1         0.1192614378E+00      0.1193112179E+00
          0               156           2             7    6     1       0.2139622393E-02       7    6    1         0.1197585952E+00      0.1198085412E+00
          0               157           2             7    6     1       0.2148558625E-02       7    6    1         0.1202576697E+00      0.1203078291E+00
          0               158           2             7    6     1       0.2157526458E-02       7    6    1         0.1207585039E+00      0.1208088445E+00
          0               159           2             7    6     1       0.2170932562E-02       7    6    1         0.1213118341E+00      0.1213621721E+00
          0               160           2             7    6     1       0.2178969511E-02       7    6    1         0.1217598619E+00      0.1218103900E+00
                                                   Max.-Head-Change                         Max.-Flux-Residual
  Residual-Control   Outer-Iter.   Inner-Iter.     Column Row Layer    Maximum-Head-Change  Column Row Layer    Maximum-Flux-Residual          L2-NORM 
          0               161           2             7    6     1       0.2188119249E-02       7    6    1         0.1222700550E+00      0.1223207672E+00
          0               162           2             7    6     1       0.2424656761E-02       7    6    1         0.1354882670E+00      0.1355344303E+00
          0               163           2             7    6     1       0.2809097358E-02       7    6    1         0.1569704193E+00      0.1570109653E+00
          0               164           2             7    6     1       0.2889478511E-02       7    6    1         0.1614581774E+00      0.1614986469E+00
          0               165           2             7    6     1       0.2914111395E-02       7    6    1         0.1628322798E+00      0.1628730017E+00
          0               166           2             7    6     1       0.2928500657E-02       7    6    1         0.1636346156E+00      0.1636755495E+00
          0               167           2             7    6     1       0.1446635019E-02       7    6    1         0.8081954470E-01      0.8090223141E-01
          0               168           2             7    6     1       0.2656468269E-03       7    6    1         0.1483091696E-01      0.1524613905E-01
          0               169           1             2   13     1      -0.5200089748E-04       2   13    1        -0.2998309568E-02      0.4410325179E-02
          0               170           1             2   13     1      -0.5177710538E-04       2   13    1        -0.2985382423E-02      0.3484719466E-02
                                                   Max.-Head-Change                         Max.-Flux-Residual
  Residual-Control   Outer-Iter.   Inner-Iter.     Column Row Layer    Maximum-Head-Change  Column Row Layer    Maximum-Flux-Residual          L2-NORM 
          0               171           1             2   13     1      -0.5154970840E-04       2   13    1        -0.2972168609E-02      0.3434733351E-02
          0               172           1             2   13     1      -0.5134326132E-04       2   13    1        -0.2960192285E-02      0.3419436965E-02
          0               173           1             2   13     1      -0.5110686532E-04       2   13    1        -0.2946472986E-02      0.3404097561E-02
          0               174           1             2   13     1      -0.5088921930E-04       2   13    1        -0.2933844712E-02      0.3389522485E-02
          0               175           1             2   13     1      -0.5067207117E-04       2   13    1        -0.2921246399E-02      0.3375156835E-02
          0               176           1             2   13     1      -0.5045326653E-04       2   13    1        -0.2908540167E-02      0.3360748555E-02
          0               177           1             2   13     1      -0.5023769053E-04       2   13    1        -0.2896036072E-02      0.3346407635E-02
          0               178           1             2   13     1      -0.5003138032E-04       2   13    1        -0.2884064736E-02      0.3332521781E-02
          0               179           1             2   13     1      -0.4979225403E-04       2   13    1        -0.2870197337E-02      0.3316934222E-02
          0               180           1             2   13     1      -0.4959735665E-04       2   13    1        -0.2858884227E-02      0.3303816408E-02
                                                   Max.-Head-Change                         Max.-Flux-Residual
  Residual-Control   Outer-Iter.   Inner-Iter.     Column Row Layer    Maximum-Head-Change  Column Row Layer    Maximum-Flux-Residual          L2-NORM 
          0               181           1             2   13     1      -0.4936800288E-04       2   13    1        -0.2845580122E-02      0.3289010891E-02
          0               182           1             2   13     1      -0.4915821560E-04       2   13    1        -0.2833413368E-02      0.3274785084E-02
          0               183           1             2   13     1      -0.4894570237E-04       2   13    1        -0.2821083745E-02      0.3260884201E-02
          0               184           1             2   13     1      -0.4872895540E-04       2   13    1        -0.2808512863E-02      0.3246575348E-02
          0               185           1             2   13     1      -0.4852837363E-04       2   13    1        -0.2796882858E-02      0.3233043833E-02
          0               186           1             2   13     1      -0.4829719307E-04       2   13    1        -0.2783466820E-02      0.3218196709E-02
          0               187           1             2   13     1      -0.4811151565E-04       2   13    1        -0.2772703045E-02      0.3205267997E-02
          0               188           1             2   13     1      -0.4789841165E-04       2   13    1        -0.2760343395E-02      0.3191372952E-02
          0               189           1             2   13     1      -0.4768005351E-04       2   13    1        -0.2747678798E-02      0.3177283151E-02
          0               190           1             2   13     1      -0.4748744540E-04       2   13    1        -0.2736510515E-02      0.3164151942E-02
                                                   Max.-Head-Change                         Max.-Flux-Residual
  Residual-Control   Outer-Iter.   Inner-Iter.     Column Row Layer    Maximum-Head-Change  Column Row Layer    Maximum-Flux-Residual          L2-NORM 
          0               191           1             2   13     1      -0.4725693923E-04       2   13    1        -0.2723150510E-02      0.3149066752E-02
          0               192           1             2   13     1      -0.4707669431E-04       2   13    1        -0.2712690344E-02      0.3137141768E-02
          0               193           1             2   13     1      -0.4684204266E-04       2   13    1        -0.2699095694E-02      0.3121679781E-02
          0               194           1             2   13     1      -0.4666273096E-04       2   13    1        -0.2688691111E-02      0.3109767004E-02
          0               195           1             2   13     1      -0.4644973948E-04       2   13    1        -0.2676348478E-02      0.3095575086E-02
          0               196           1             2   13     1      -0.4626047132E-04       2   13    1        -0.2665371348E-02      0.3083016568E-02
          0               197           1             2   13     1      -0.4604506762E-04       2   13    1        -0.2652887298E-02      0.3068916107E-02
          0               198           1             7   11     1      -0.1144156830E-05       7   11    1        -0.6071021778E-04      0.1288077038E-03

    ------------------------------------------------
       NWT REQUIRED          198 OUTER ITERATIONS 
       AND A TOTAL OF        366 INNER ITERATIONS.
    ------------------------------------------------

 OUTPUT CONTROL FOR STRESS PERIOD    8   TIME STEP    5
    PRINT BUDGET
    SAVE BUDGET
 UBUDSV SAVING "         STORAGE" ON UNIT102 AT TIME STEP     5, STRESS PERIOD    8
 UBUDSV SAVING "   CONSTANT HEAD" ON UNIT102 AT TIME STEP     5, STRESS PERIOD    8
 UBUDSV SAVING "FLOW RIGHT FACE " ON UNIT102 AT TIME STEP     5, STRESS PERIOD    8
 UBUDSV SAVING "FLOW FRONT FACE " ON UNIT102 AT TIME STEP     5, STRESS PERIOD    8

  HEAD DEP BOUNDS   PERIOD    8   STEP     5
 BOUNDARY      1   LAYER   1   ROW    13   COL     1   RATE   -0.283541    
 BOUNDARY      2   LAYER   1   ROW    14   COL     9   RATE     1.04189    



 STREAM LISTING     PERIOD      8   STEP        5

 LAYER ROW COL. STREAM  RCH.  FLOW INTO     FLOW TO   FLOW OUT OF   OVRLND.     DIRECT     STREAM       STREAM     STREAM     STREAM   STREAMBED  STREAMBED
                SEG.NO.  NO.  STRM. RCH.    AQUIFER    STRM. RCH.    RUNOFF     PRECIP       ET          HEAD       DEPTH      WIDTH   CONDCTNC.   GRADIENT

   1    1    1     1     1    3.5000E+01  2.8629E-11   3.5000E+01  0.000E+00  0.000E+00  0.000E+00  1.09434E+03  1.292E+00  1.482E+01  6.670E-12  1.431E+00
   1    2    2     1     2    3.5000E+01  4.4488E-11   3.5000E+01  0.000E+00  0.000E+00  0.000E+00  1.08935E+03  1.292E+00  1.481E+01  1.037E-11  1.431E+00
   1    3    3     1     3    3.5000E+01  3.8148E-11   3.5000E+01  0.000E+00  0.000E+00  0.000E+00  1.08371E+03  1.292E+00  1.481E+01  8.888E-12  1.431E+00
   1    3    4     1     4    3.5000E+01  3.5294E-11   3.5000E+01  0.000E+00  0.000E+00  0.000E+00  1.07870E+03  1.292E+00  1.482E+01  8.223E-12  1.431E+00
   1    4    5     2     1    3.3000E+01  3.4491E-01   3.2655E+01  0.000E+00  0.000E+00  0.000E+00  1.07336E+03  1.422E+00  1.200E+01  7.800E-02  1.474E+00
   1    5    6     2     2    3.2655E+01  2.6484E-01   3.2390E+01  0.000E+00  0.000E+00  0.000E+00  1.06792E+03  1.414E+00  1.200E+01  6.000E-02  1.471E+00
   1    6    6     2     3    3.2390E+01  2.6443E-01   3.2126E+01  0.000E+00  0.000E+00  0.000E+00  1.06320E+03  1.407E+00  1.200E+01  6.000E-02  1.469E+00
   1    7    6     2     4    3.2126E+01  2.6401E-01   3.1862E+01  0.000E+00  0.000E+00  0.000E+00  1.05848E+03  1.400E+00  1.200E+01  6.000E-02  1.467E+00
   1    8    6     2     5    3.1862E+01  2.6359E-01   3.1598E+01  0.000E+00  0.000E+00  0.000E+00  1.05375E+03  1.393E+00  1.200E+01  6.000E-02  1.464E+00
   1    3    5     3     1    2.0000E+00  2.8252E-01   1.7175E+00  0.000E+00  0.000E+00  0.000E+00  1.07555E+03  1.909E+00  9.636E+00  7.227E-02  1.955E+00
   1    3    6     3     2    1.7175E+00  2.4905E-01   1.4684E+00  0.000E+00  0.000E+00  0.000E+00  1.07264E+03  1.727E+00  8.909E+00  6.682E-02  1.864E+00
   1    3    7     3     3    1.4684E+00  1.9718E-01   1.2712E+00  0.000E+00  0.000E+00  0.000E+00  1.06987E+03  1.555E+00  8.218E+00  5.547E-02  1.777E+00
   1    4    8     3     4    1.2712E+00  2.2567E-01   1.0456E+00  0.000E+00  0.000E+00  0.000E+00  1.06682E+03  1.364E+00  7.455E+00  6.709E-02  1.682E+00
   1    5    8     3     5    1.0456E+00  1.5790E-01   8.8768E-01  0.000E+00  0.000E+00  0.000E+00  1.06362E+03  1.164E+00  6.655E+00  4.991E-02  1.582E+00
   1    6    8     3     6    8.8768E-01  5.5980E-02   8.3170E-01  0.000E+00  0.000E+00  0.000E+00  1.06158E+03  1.036E+00  6.145E+00  1.844E-02  1.518E+00
   1    5   10     4     1    1.0000E+01  9.0919E-02   9.9091E+00  0.000E+00  0.000E+00  0.000E+00  1.07836E+03  6.368E-01  1.000E+01  2.500E-02  1.212E+00
   1    5    9     4     2    9.9091E+00  1.8158E-01   9.7275E+00  0.000E+00  0.000E+00  0.000E+00  1.07154E+03  6.315E-01  1.000E+01  5.000E-02  1.211E+00
   1    6    8     4     3    9.7275E+00  1.2689E-01   9.6006E+00  0.000E+00  0.000E+00  0.000E+00  1.06381E+03  6.256E-01  1.000E+01  3.500E-02  1.209E+00
   1    6    8     5     1    1.0432E+01  2.2686E-09   1.0432E+01  0.000E+00  0.000E+00  0.000E+00  1.05868E+03  6.790E-01  1.542E+01  6.166E-10  1.226E+00
   1    7    7     5     2    1.0432E+01  2.8306E-09   1.0432E+01  0.000E+00  0.000E+00  0.000E+00  1.05418E+03  6.784E-01  1.539E+01  7.695E-10  1.226E+00
   1    8    7     5     3    1.0432E+01  1.9868E-09   1.0432E+01  0.000E+00  0.000E+00  0.000E+00  1.04993E+03  6.794E-01  1.543E+01  5.400E-10  1.226E+00
   1    8    6     5     4    1.0432E+01  1.4217E-09   1.0432E+01  0.000E+00  0.000E+00  0.000E+00  1.04693E+03  6.800E-01  1.545E+01  3.863E-10  1.227E+00
   1    9    6     6     1    2.2031E+01  2.4768E-01   2.1783E+01  0.000E+00  0.000E+00  0.000E+00  1.04386E+03  1.128E+00  1.200E+01  6.000E-02  1.376E+00
   1   10    7     6     2    2.1783E+01  2.4722E-01   2.1536E+01  0.000E+00  0.000E+00  0.000E+00  1.03930E+03  1.120E+00  1.200E+01  6.000E-02  1.373E+00
   1   11    7     6     3    2.1536E+01  2.4676E-01   2.1289E+01  0.000E+00  0.000E+00  0.000E+00  1.03475E+03  1.113E+00  1.200E+01  6.000E-02  1.371E+00
   1   12    7     6     4    2.1289E+01  2.4630E-01   2.1043E+01  0.000E+00  0.000E+00  0.000E+00  1.03020E+03  1.105E+00  1.200E+01  6.000E-02  1.368E+00
   1   13    7     6     5    2.1043E+01  9.8389E-02   2.0944E+01  0.000E+00  0.000E+00  0.000E+00  1.02701E+03  1.100E+00  1.200E+01  2.400E-02  1.367E+00
   1   14    9     7     1    1.5000E+02  2.9539E-08   1.5000E+02  0.000E+00  0.000E+00  0.000E+00  1.03986E+03  2.283E+00  5.528E+01  5.591E-09  1.761E+00
   1   13    8     7     2    1.5000E+02  3.2486E-14   1.5000E+02  0.000E+00  0.000E+00  0.000E+00  1.03478E+03  2.283E+00  5.527E+01  6.150E-15  1.761E+00
   1   13    7     7     3    1.5000E+02  2.9539E-08   1.5000E+02  0.000E+00  0.000E+00  0.000E+00  1.02970E+03  2.283E+00  5.528E+01  5.591E-09  1.761E+00
   1   13    6     8     1    1.7094E+02  2.6045E-32   1.7094E+02  0.000E+00  0.000E+00  0.000E+00  1.02483E+03  2.958E+00  4.290E+01  4.371E-33  1.986E+00
   1   13    5     8     2    1.7094E+02  2.5934E-15   1.7094E+02  0.000E+00  0.000E+00  0.000E+00  1.01857E+03  2.950E+00  4.277E+01  4.359E-16  1.983E+00
   1   13    4     8     3    1.7094E+02  2.1233E-17   1.7094E+02  0.000E+00  0.000E+00  0.000E+00  1.01233E+03  2.951E+00  4.280E+01  4.361E-18  1.623E+00
   1   13    3     8     4    1.7094E+02  5.2203E-08   1.7094E+02  0.000E+00  0.000E+00  0.000E+00  1.00608E+03  2.957E+00  4.287E+01  4.369E-08  3.983E-01
   1   13    2     8     5    1.7094E+02 -1.6395E+00   1.7258E+02  0.000E+00  0.000E+00  0.000E+00  9.99839E+02  2.964E+00  4.297E+01  4.379E+00 -1.248E-01
   1   13    1     8     6    1.7258E+02 -1.6149E+00   1.7420E+02  0.000E+00  0.000E+00  0.000E+00  9.94849E+02  2.974E+00  4.313E+01  2.637E+00 -2.042E-01
   1    6    8     9     1    2.0000E+01  0.0000E+00   2.0000E+01  0.000E+00  0.000E+00  0.000E+00  1.07932E+03  8.168E-01  4.000E+00  0.000E+00  1.272E+00



 UBDSV3 SAVING "     NETRECHARGE" ON UNIT 100 AT TIME STEP     5, STRESS PERIOD   8
 UBDSV3 SAVING "    NETDISCHARGE" ON UNIT 101 AT TIME STEP     5, STRESS PERIOD   8
 UBDSV3 SAVING "           GW ET" ON UNIT  61 AT TIME STEP     5, STRESS PERIOD   8
 UBDSV3 SAVING "    UZF RECHARGE" ON UNIT  61 AT TIME STEP     5, STRESS PERIOD   8
 UBDSV3 SAVING " SURFACE LEAKAGE" ON UNIT  61 AT TIME STEP     5, STRESS PERIOD   8
 UBDSV3 SAVING "       HORT+DUNN" ON UNIT  61 AT TIME STEP     5, STRESS PERIOD   8
 UBDSV3 SAVING "  STORAGE CHANGE" ON UNIT  61 AT TIME STEP     5, STRESS PERIOD   8


UNSATURATED ZONE PACKAGE VOLUMETRIC BUDGET FOR  TIME STEP     5 STRESS PERIOD    8
  ------------------------------------------------------------------------------



     CUMULATIVE VOLUMES      L**3       RATES FOR THIS TIME STEP      L**3/T
     ------------------                 ------------------------

           IN:                                      IN:
           ---                                      ---
        INFILTRATION =    19465815.1721          INFILTRATION =          20.8475

          OUT:                                     OUT:
          ----                                     ----
              UZF ET =   434737444.6332                UZF ET =         206.5744
        UZF RECHARGE =   459539006.2539          UZF RECHARGE =          26.8642

            IN - OUT =  -874810635.7150              IN - OUT =        -212.5911

          STORAGE:                                 STORAGE:
          --------                                 --------
      STORAGE CHANGE =  -874807515.9285        STORAGE CHANGE =        -212.5911

 PERCENT DISCREPANCY IS DIFFERENCE BETWEEN IN-OUT MINUS CHANGE IN STORAGE
 DIVIDED BY THE AVERAGE OF IN AND OUT TIMES 100

 PERCENT DISCREPANCY =          -0.00     PERCENT DISCREPANCY =           0.00






1
  VOLUMETRIC BUDGET FOR ENTIRE MODEL AT END OF TIME STEP    5, STRESS PERIOD   8
  ------------------------------------------------------------------------------

     CUMULATIVE VOLUMES      L**3       RATES FOR THIS TIME STEP      L**3/T
     ------------------                 ------------------------

           IN:                                      IN:
           ---                                      ---
             STORAGE =     5490277.5000               STORAGE =           4.0129
       CONSTANT HEAD =           0.0000         CONSTANT HEAD =           0.0000
               WELLS =           0.0000                 WELLS =           0.0000
     HEAD DEP BOUNDS =    19925682.0000       HEAD DEP BOUNDS =           1.0419
      STREAM LEAKAGE =    75326880.0000        STREAM LEAKAGE =           4.0558
        UZF RECHARGE =   459538976.0000          UZF RECHARGE =          26.8642
               GW ET =           0.0000                 GW ET =           0.0000
     SURFACE LEAKAGE =           0.0000       SURFACE LEAKAGE =           0.0000

            TOTAL IN =   560281792.0000              TOTAL IN =          35.9749

          OUT:                                     OUT:
          ----                                     ----
             STORAGE =   497203168.0000               STORAGE =          28.1104
       CONSTANT HEAD =           0.0000         CONSTANT HEAD =           0.0000
               WELLS =           0.0000                 WELLS =           0.0000
     HEAD DEP BOUNDS =     5442012.5000       HEAD DEP BOUNDS =           0.2835
      STREAM LEAKAGE =    48712612.0000        STREAM LEAKAGE =           3.2544
        UZF RECHARGE =           0.0000          UZF RECHARGE =           0.0000
               GW ET =     8886487.0000                 GW ET =           4.3265
     SURFACE LEAKAGE =           0.0000       SURFACE LEAKAGE =           0.0000

           TOTAL OUT =   560244288.0000             TOTAL OUT =          35.9749

            IN - OUT =       37504.0000              IN - OUT =      -5.7220E-05

 PERCENT DISCREPANCY =           0.01     PERCENT DISCREPANCY =          -0.00






         TIME SUMMARY AT END OF TIME STEP    5 IN STRESS PERIOD    8
                    SECONDS     MINUTES      HOURS       DAYS        YEARS
                    -----------------------------------------------------------
   TIME STEP LENGTH  87600.      1460.0      24.333      1.0139     2.77588E-03
 STRESS PERIOD TIME 4.38000E+05  7300.0      121.67      5.0694     1.38794E-02
         TOTAL TIME 1.88340E+07 3.13900E+05  5231.7      217.99     0.59681    
1
 
 SOLVING FOR HEAD 
                                                   Max.-Head-Change                         Max.-Flux-Residual
  Residual-Control   Outer-Iter.   Inner-Iter.     Column Row Layer    Maximum-Head-Change  Column Row Layer    Maximum-Flux-Residual          L2-NORM 
          0                 1           2             1   13     1      -0.2667397648E-01       1   13    1        -0.1456436690E+01      0.2734085118E+01
          0                 2           2             8    3     1       0.2915113896E-02       1   13    1         0.1439456029E+00      0.5131619765E+00
          0                 3           2             8    3     1       0.1308582376E-02       8    3    1         0.3401869638E-01      0.1764520488E+00
          0                 4           2             8    3     1       0.5874109727E-03       8    3    1         0.1527082355E-01      0.7588132062E-01
          0                 5           2             8    3     1       0.2636806548E-03       8    3    1         0.6854923490E-02      0.3378854999E-01
          0                 6           2             8    3     1       0.1183612688E-03       8    3    1         0.3077074087E-02      0.1512016692E-01
          0                 7           1             8    3     1       0.5312953825E-04       8    3    1         0.1381237650E-02      0.6771443317E-02
          0                 8           1             8    3     1       0.2384830620E-04       8    3    1         0.6200032176E-03      0.3033020185E-02
          0                 9           1             8    3     1       0.1070469000E-04       8    3    1         0.2783008530E-03      0.1358620297E-02
          0                10           1             8    3     1       0.4804914767E-05       8    3    1         0.1249194815E-03      0.6086156335E-03

    ------------------------------------------------
       NWT REQUIRED           10 OUTER ITERATIONS 
       AND A TOTAL OF         16 INNER ITERATIONS.
    ------------------------------------------------

 NO OUTPUT CONTROL FOR STRESS PERIOD    8   TIME STEP    6
 
 SOLVING FOR HEAD 
                                                   Max.-Head-Change                         Max.-Flux-Residual
  Residual-Control   Outer-Iter.   Inner-Iter.     Column Row Layer    Maximum-Head-Change  Column Row Layer    Maximum-Flux-Residual          L2-NORM 
          0                 1           2             7    6     1      -0.2887199835E+00       7    6    1        -0.1573553552E+02      0.1596929640E+02
          0                 2           2             7    6     1       0.2856524160E-01       7    6    1         0.1572896437E+01      0.1651186049E+01
          0                 3           2             8    3     1       0.1306604736E-02       8    3    1         0.3396731043E-01      0.1766729258E+00
          0                 4           2             7    6     1       0.2220311835E-02       7    6    1         0.1244403751E+00      0.1456600064E+00
          0                 5           2             7    6     1       0.2044165726E-02       7    6    1         0.1145712596E+00      0.1194827450E+00
          0                 6           2             7    6     1       0.2063723624E-02       7    6    1         0.1156697343E+00      0.1167000810E+00
          0                 7           2             7    6     1       0.2069613662E-02       7    6    1         0.1159994319E+00      0.1162466277E+00
          0                 8           2             7    6     1       0.2076477339E-02       7    6    1         0.1163832452E+00      0.1164732275E+00
          0                 9           2             7    6     1       0.2083309756E-02       7    6    1         0.1167651683E+00      0.1168238205E+00
          0                10           2             7    6     1       0.2090162335E-02       7    6    1         0.1171481742E+00      0.1172006639E+00
                                                   Max.-Head-Change                         Max.-Flux-Residual
  Residual-Control   Outer-Iter.   Inner-Iter.     Column Row Layer    Maximum-Head-Change  Column Row Layer    Maximum-Flux-Residual          L2-NORM 
          0                11           2             7    6     1       0.2097030843E-02       7    6    1         0.1175320512E+00      0.1175834372E+00
          0                12           2             7    6     1       0.2103915375E-02       7    6    1         0.1179168133E+00      0.1179681055E+00
          0                13           2             7    6     1       0.2110815851E-02       7    6    1         0.1183024593E+00      0.1183538849E+00
          0                14           2             7    6     1       0.2117749257E-02       7    6    1         0.1186899429E+00      0.1187414819E+00
          0                15           2             7    6     1       0.2124697374E-02       7    6    1         0.1190782431E+00      0.1191299737E+00
          0                16           2             7    6     1       0.2131644464E-02       7    6    1         0.1194664780E+00      0.1195183231E+00
          0                17           2             7    6     1       0.2138642668E-02       7    6    1         0.1198575709E+00      0.1199096301E+00
          0                18           2             7    6     1       0.2145620269E-02       7    6    1         0.1202475010E+00      0.1202996674E+00
          0                19           2             7    6     1       0.2152650361E-02       7    6    1         0.1206403663E+00      0.1206927215E+00
          0                20           2             7    6     1       0.2159676762E-02       7    6    1         0.1210330170E+00      0.1210854949E+00
                                                   Max.-Head-Change                         Max.-Flux-Residual
  Residual-Control   Outer-Iter.   Inner-Iter.     Column Row Layer    Maximum-Head-Change  Column Row Layer    Maximum-Flux-Residual          L2-NORM 
          0                21           2             7    6     1       0.2166720399E-02       7    6    1         0.1214266285E+00      0.1214793300E+00
          0                22           2             7    6     1       0.2173796432E-02       7    6    1         0.1218220630E+00      0.1218748970E+00
          0                23           2             7    6     1       0.2180870325E-02       7    6    1         0.1222173700E+00      0.1222703680E+00
          0                24           2             7    6     1       0.2187995409E-02       7    6    1         0.1226155392E+00      0.1226686957E+00
          0                25           2             7    6     1       0.2195099874E-02       7    6    1         0.1230125450E+00      0.1230658556E+00
          0                26           2             7    6     1       0.2202239818E-02       7    6    1         0.1234115323E+00      0.1234650286E+00
          0                27           2             7    6     1       0.2209394277E-02       7    6    1         0.1238113255E+00      0.1238649670E+00
          0                28           2             7    6     1       0.2216564728E-02       7    6    1         0.1242120076E+00      0.1242658247E+00
          0                29           2             7    6     1       0.2223768081E-02       7    6    1         0.1246145264E+00      0.1246684724E+00
          0                30           2             7    6     1       0.2230952100E-02       7    6    1         0.1250159540E+00      0.1250697921E+00
                                                   Max.-Head-Change                         Max.-Flux-Residual
  Residual-Control   Outer-Iter.   Inner-Iter.     Column Row Layer    Maximum-Head-Change  Column Row Layer    Maximum-Flux-Residual          L2-NORM 
          0                31           2             7    6     1       0.2231603332E-02       7    6    1         0.1250512395E+00      0.1251050704E+00
          0                32           2             7    6     1       0.2231574393E-02       7    6    1         0.1250484543E+00      0.1251022743E+00
          0                33           2             7    6     1       0.2231559079E-02       7    6    1         0.1250464464E+00      0.1251002474E+00
          0                34           2             7    6     1       0.2231559758E-02       7    6    1         0.1250453371E+00      0.1250991477E+00
          0                35           2             7    6     1       0.2231559300E-02       7    6    1         0.1250441644E+00      0.1250979429E+00
          0                36           2             7    6     1       0.2231558920E-02       7    6    1         0.1250429961E+00      0.1250967734E+00
          0                37           2             7    6     1       0.2231558536E-02       7    6    1         0.1250418275E+00      0.1250955776E+00
          0                38           2             7    6     1       0.2231558151E-02       7    6    1         0.1250406590E+00      0.1250944217E+00
          0                39           2             7    6     1       0.2231557767E-02       7    6    1         0.1250394905E+00      0.1250932358E+00
          0                40           2             7    6     1       0.2231557383E-02       7    6    1         0.1250383221E+00      0.1250920595E+00
                                                   Max.-Head-Change                         Max.-Flux-Residual
  Residual-Control   Outer-Iter.   Inner-Iter.     Column Row Layer    Maximum-Head-Change  Column Row Layer    Maximum-Flux-Residual          L2-NORM 
          0                41           2             7    6     1       0.2231556998E-02       7    6    1         0.1250371536E+00      0.1250908812E+00
          0                42           2             7    6     1       0.2231556614E-02       7    6    1         0.1250359852E+00      0.1250896728E+00
          0                43           2             7    6     1       0.2231556229E-02       7    6    1         0.1250348167E+00      0.1250885271E+00
          0                44           2             7    6     1       0.2231555845E-02       7    6    1         0.1250336484E+00      0.1250873447E+00
          0                45           2             7    6     1       0.2231555460E-02       7    6    1         0.1250324800E+00      0.1250861510E+00
          0                46           2             7    6     1       0.2231555076E-02       7    6    1         0.1250313116E+00      0.1250849703E+00
          0                47           2             7    6     1       0.2231554692E-02       7    6    1         0.1250301433E+00      0.1250838081E+00
          0                48           2             7    6     1       0.2231554307E-02       7    6    1         0.1250289750E+00      0.1250826191E+00
          0                49           2             7    6     1       0.2231553923E-02       7    6    1         0.1250278068E+00      0.1250814334E+00
          0                50           2             7    6     1       0.2231553538E-02       7    6    1         0.1250266385E+00      0.1250802833E+00
                                                   Max.-Head-Change                         Max.-Flux-Residual
  Residual-Control   Outer-Iter.   Inner-Iter.     Column Row Layer    Maximum-Head-Change  Column Row Layer    Maximum-Flux-Residual          L2-NORM 
          0                51           2             7    6     1       0.2231553154E-02       7    6    1         0.1250254703E+00      0.1250790665E+00
          0                52           2             7    6     1       0.2231552769E-02       7    6    1         0.1250243020E+00      0.1250779034E+00
          0                53           2             7    6     1       0.2231552385E-02       7    6    1         0.1250231339E+00      0.1250767344E+00
          0                54           2             7    6     1       0.2231552000E-02       7    6    1         0.1250219657E+00      0.1250755353E+00
          0                55           2             7    6     1       0.2231551616E-02       7    6    1         0.1250207975E+00      0.1250743539E+00
          0                56           2             7    6     1       0.2231551231E-02       7    6    1         0.1250196294E+00      0.1250731861E+00
          0                57           2             7    6     1       0.2231550847E-02       7    6    1         0.1250184613E+00      0.1250720084E+00
          0                58           2             7    6     1       0.2231550463E-02       7    6    1         0.1250172932E+00      0.1250708322E+00
          0                59           2             7    6     1       0.2231550077E-02       7    6    1         0.1250161251E+00      0.1250696409E+00
          0                60           2             7    6     1       0.2231549694E-02       7    6    1         0.1250149571E+00      0.1250684799E+00
                                                   Max.-Head-Change                         Max.-Flux-Residual
  Residual-Control   Outer-Iter.   Inner-Iter.     Column Row Layer    Maximum-Head-Change  Column Row Layer    Maximum-Flux-Residual          L2-NORM 
          0                61           2             7    6     1       0.2231549309E-02       7    6    1         0.1250137891E+00      0.1250672843E+00
          0                62           2             7    6     1       0.2231548925E-02       7    6    1         0.1250126211E+00      0.1250661091E+00
          0                63           2             7    6     1       0.2231565561E-02       7    6    1         0.1250124068E+00      0.1250658856E+00
          0                64           2             7    6     1       0.2231563973E-02       7    6    1         0.1250111712E+00      0.1250646370E+00
          0                65           2             7    6     1       0.2231563674E-02       7    6    1         0.1250100081E+00      0.1250634762E+00
          0                66           2             7    6     1       0.2231563284E-02       7    6    1         0.1250088399E+00      0.1250622811E+00
          0                67           2             7    6     1       0.2231562900E-02       7    6    1         0.1250076720E+00      0.1250610989E+00
          0                68           2             7    6     1       0.2231562515E-02       7    6    1         0.1250065041E+00      0.1250599507E+00
          0                69           2             7    6     1       0.2231562131E-02       7    6    1         0.1250053362E+00      0.1250587344E+00
          0                70           2             7    6     1       0.2231561746E-02       7    6    1         0.1250041684E+00      0.1250575759E+00
                                                   Max.-Head-Change                         Max.-Flux-Residual
  Residual-Control   Outer-Iter.   Inner-Iter.     Column Row Layer    Maximum-Head-Change  Column Row Layer    Maximum-Flux-Residual          L2-NORM 
          0                71           2             7    6     1       0.2231561362E-02       7    6    1         0.1250030006E+00      0.1250563890E+00
          0                72           2             7    6     1       0.2231560977E-02       7    6    1         0.1250018328E+00      0.1250552098E+00
          0                73           2             7    6     1       0.2231560593E-02       7    6    1         0.1250006650E+00      0.1250540475E+00
          0                74           2             7    6     1       0.2231560208E-02       7    6    1         0.1249994973E+00      0.1250528473E+00
          0                75           2             7    6     1       0.2231559824E-02       7    6    1         0.1249983296E+00      0.1250516699E+00
          0                76           2             7    6     1       0.2231559439E-02       7    6    1         0.1249971619E+00      0.1250504874E+00
          0                77           2             7    6     1       0.2231559055E-02       7    6    1         0.1249959942E+00      0.1250493375E+00
          0                78           2             7    6     1       0.2231558671E-02       7    6    1         0.1249948266E+00      0.1250481322E+00
          0                79           2             7    6     1       0.2231558286E-02       7    6    1         0.1249936589E+00      0.1250469534E+00
          0                80           2             7    6     1       0.2231557902E-02       7    6    1         0.1249924913E+00      0.1250457754E+00
                                                   Max.-Head-Change                         Max.-Flux-Residual
  Residual-Control   Outer-Iter.   Inner-Iter.     Column Row Layer    Maximum-Head-Change  Column Row Layer    Maximum-Flux-Residual          L2-NORM 
          0                81           2             7    6     1       0.2231557517E-02       7    6    1         0.1249913237E+00      0.1250446263E+00
          0                82           2             7    6     1       0.2231557133E-02       7    6    1         0.1249901562E+00      0.1250434152E+00
          0                83           2             7    6     1       0.2231556748E-02       7    6    1         0.1249889886E+00      0.1250422505E+00
          0                84           2             7    6     1       0.2231556364E-02       7    6    1         0.1249878211E+00      0.1250410661E+00
          0                85           2             7    6     1       0.2231555979E-02       7    6    1         0.1249866536E+00      0.1250398937E+00
          0                86           2             7    6     1       0.2231555595E-02       7    6    1         0.1249854861E+00      0.1250386918E+00
          0                87           2             7    6     1       0.2231555210E-02       7    6    1         0.1249843186E+00      0.1250375239E+00
          0                88           2             7    6     1       0.2231554826E-02       7    6    1         0.1249831512E+00      0.1250363760E+00
          0                89           2             7    6     1       0.2231554441E-02       7    6    1         0.1249819838E+00      0.1250351618E+00
          0                90           2             7    6     1       0.2231554057E-02       7    6    1         0.1249808164E+00      0.1250339972E+00
                                                   Max.-Head-Change                         Max.-Flux-Residual
  Residual-Control   Outer-Iter.   Inner-Iter.     Column Row Layer    Maximum-Head-Change  Column Row Layer    Maximum-Flux-Residual          L2-NORM 
          0                91           2             7    6     1       0.2231553672E-02       7    6    1         0.1249796490E+00      0.1250328052E+00
          0                92           2             7    6     1       0.2231553289E-02       7    6    1         0.1249784817E+00      0.1250316434E+00
          0                93           2             7    6     1       0.2231552904E-02       7    6    1         0.1249773143E+00      0.1250304617E+00
          0                94           2             7    6     1       0.2231552520E-02       7    6    1         0.1249761470E+00      0.1250292892E+00
          0                95           2             7    6     1       0.2231552135E-02       7    6    1         0.1249749797E+00      0.1250280997E+00
          0                96           2             7    6     1       0.2231551751E-02       7    6    1         0.1249738125E+00      0.1250269278E+00
          0                97           2             7    6     1       0.2231551366E-02       7    6    1         0.1249726452E+00      0.1250257388E+00
          0                98           2             7    6     1       0.2231550982E-02       7    6    1         0.1249714780E+00      0.1250245993E+00
          0                99           2             7    6     1       0.2231550597E-02       7    6    1         0.1249703108E+00      0.1250233791E+00
          0               100           2             7    6     1       0.2231550212E-02       7    6    1         0.1249691436E+00      0.1250221997E+00
                                                   Max.-Head-Change                         Max.-Flux-Residual
  Residual-Control   Outer-Iter.   Inner-Iter.     Column Row Layer    Maximum-Head-Change  Column Row Layer    Maximum-Flux-Residual          L2-NORM 
          0               101           2             7    6     1       0.2231549828E-02       7    6    1         0.1249679765E+00      0.1250210300E+00
          0               102           2             7    6     1       0.2231549444E-02       7    6    1         0.1249668094E+00      0.1250198660E+00
          0               103           2             7    6     1       0.2231549059E-02       7    6    1         0.1249656423E+00      0.1250186668E+00
          0               104           2             7    6     1       0.2231548675E-02       7    6    1         0.1249644752E+00      0.1250175057E+00
          0               105           2             7    6     1       0.2231548291E-02       7    6    1         0.1249633081E+00      0.1250163079E+00
          0               106           2             7    6     1       0.2231547906E-02       7    6    1         0.1249621410E+00      0.1250151509E+00
          0               107           2             7    6     1       0.2231547522E-02       7    6    1         0.1249609740E+00      0.1250139704E+00
          0               108           2             7    6     1       0.2231547137E-02       7    6    1         0.1249598070E+00      0.1250127824E+00
          0               109           2             7    6     1       0.2231546753E-02       7    6    1         0.1249586401E+00      0.1250116025E+00
          0               110           2             7    6     1       0.2231546369E-02       7    6    1         0.1249574731E+00      0.1250104325E+00
                                                   Max.-Head-Change                         Max.-Flux-Residual
  Residual-Control   Outer-Iter.   Inner-Iter.     Column Row Layer    Maximum-Head-Change  Column Row Layer    Maximum-Flux-Residual          L2-NORM 
          0               111           2             7    6     1       0.2231545984E-02       7    6    1         0.1249563061E+00      0.1250092452E+00
          0               112           2             7    6     1       0.2231545599E-02       7    6    1         0.1249551392E+00      0.1250080815E+00
          0               113           2             7    6     1       0.2231545215E-02       7    6    1         0.1249539723E+00      0.1250068884E+00
          0               114           2             7    6     1       0.2236572057E-02       7    6    1         0.1250327035E+00      0.1250852619E+00
          0               115           2             7    6     1       0.2235042966E-02       7    6    1         0.1249458582E+00      0.1249985611E+00
          0               116           2             7    6     1       0.2235152198E-02       7    6    1         0.1249508104E+00      0.1250034608E+00
          0               117           2             7    6     1       0.2235143785E-02       7    6    1         0.1249492069E+00      0.1250018647E+00
          0               118           2             7    6     1       0.2755840948E-02       7    6    1         0.1540603311E+00      0.1541030289E+00
          0               119           2             7    6     1       0.2901370027E-02       7    6    1         0.1621917203E+00      0.1622331910E+00
          0               120           2             7    6     1       0.2928152470E-02       7    6    1         0.1636859978E+00      0.1637274790E+00
                                                   Max.-Head-Change                         Max.-Flux-Residual
  Residual-Control   Outer-Iter.   Inner-Iter.     Column Row Layer    Maximum-Head-Change  Column Row Layer    Maximum-Flux-Residual          L2-NORM 
          0               121           2             7    6     1       0.2933084680E-02       7    6    1         0.1639598216E+00      0.1640013849E+00
          0               122           2             7    6     1       0.2489873751E-02       7    6    1         0.1391791434E+00      0.1392281183E+00
          0               123           2             7    6     1       0.4579852447E-03       7    6    1         0.2558293304E-01      0.2584264260E-01
          0               124           1             7    6     1       0.8431920341E-04       7    6    1         0.4707108423E-02      0.5891632958E-02
          0               125           1             2   13     1      -0.5315312270E-04       2   13    1        -0.3066111338E-02      0.3634742705E-02
          0               126           1             2   13     1      -0.5313560544E-04       2   13    1        -0.3065006125E-02      0.3532082864E-02
          0               127           1             2   13     1      -0.5315140496E-04       2   13    1        -0.3065835837E-02      0.3529045775E-02
          0               128           1             2   13     1      -0.5313504772E-04       2   13    1        -0.3064799371E-02      0.3528272092E-02
          0               129           1             2   13     1      -0.5312340183E-04       2   13    1        -0.3064040125E-02      0.3527498184E-02
          0               130           1             2   13     1      -0.5312488114E-04       2   13    1        -0.3064042442E-02      0.3527590291E-02
                                                   Max.-Head-Change                         Max.-Flux-Residual
  Residual-Control   Outer-Iter.   Inner-Iter.     Column Row Layer    Maximum-Head-Change  Column Row Layer    Maximum-Flux-Residual          L2-NORM 
          0               131           1             2   13     1      -0.5310011123E-04       2   13    1        -0.3062517630E-02      0.3526229525E-02
          0               132           1             2   13     1      -0.5311288039E-04       2   13    1        -0.3063164036E-02      0.3526924127E-02
          0               133           1             2   13     1      -0.5308697464E-04       2   13    1        -0.3061584724E-02      0.3525405748E-02
          0               134           1             2   13     1      -0.5308609229E-04       2   13    1        -0.3061443729E-02      0.3525468469E-02
          0               135           1             2   13     1      -0.5307704513E-04       2   13    1        -0.3060834589E-02      0.3524928262E-02
          0               136           1             2   13     1      -0.5308260801E-04       2   13    1        -0.3061066631E-02      0.3525325750E-02
          0               137           1             2   13     1      -0.5301028870E-04       2   13    1        -0.3056795887E-02      0.3521561046E-02
          0               138           1             2   13     1      -0.5311922703E-04       2   13    1        -0.3063013974E-02      0.3526910429E-02
          0               139           1             2   13     1      -0.5304270816E-04       2   13    1        -0.3058496151E-02      0.3523198840E-02
          0               140           1             2   13     1      -0.5304288843E-04       2   13    1        -0.3058419218E-02      0.3523231508E-02
                                                   Max.-Head-Change                         Max.-Flux-Residual
  Residual-Control   Outer-Iter.   Inner-Iter.     Column Row Layer    Maximum-Head-Change  Column Row Layer    Maximum-Flux-Residual          L2-NORM 
          0               141           1             2   13     1      -0.5304808297E-04       2   13    1        -0.3058633637E-02      0.3523380409E-02
          0               142           1             2   13     1      -0.5302769244E-04       2   13    1        -0.3057366058E-02      0.3522372453E-02
          0               143           1             2   13     1      -0.5301952618E-04       2   13    1        -0.3056806743E-02      0.3521913923E-02
          0               144           1             2   13     1      -0.5300412801E-04       2   13    1        -0.3055830171E-02      0.3521015009E-02
          0               145           1             2   13     1      -0.5301334197E-04       2   13    1        -0.3056272411E-02      0.3521713032E-02
          0               146           1             2   13     1      -0.5299452921E-04       2   13    1        -0.3055097141E-02      0.3520731212E-02
          0               147           1             2   13     1      -0.5299275593E-04       2   13    1        -0.3054911669E-02      0.3520309747E-02
          0               148           1             2   13     1      -0.5298744905E-04       2   13    1        -0.3054513400E-02      0.3520351243E-02
          0               149           1             2   13     1      -0.5297857392E-04       2   13    1        -0.3053910987E-02      0.3519955379E-02
          0               150           1             2   13     1      -0.5296148080E-04       2   13    1        -0.3052842312E-02      0.3518945600E-02
                                                   Max.-Head-Change                         Max.-Flux-Residual
  Residual-Control   Outer-Iter.   Inner-Iter.     Column Row Layer    Maximum-Head-Change  Column Row Layer    Maximum-Flux-Residual          L2-NORM 
          0               151           1             2   13     1      -0.3547510065E-04       2   13    1        -0.2044813473E-02      0.2366087186E-02
          0               152           1             2   13     1       0.2785825845E-05       2   13    1         0.1620251096E-03      0.2007214786E-03

    ------------------------------------------------
       NWT REQUIRED          152 OUTER ITERATIONS 
       AND A TOTAL OF        275 INNER ITERATIONS.
    ------------------------------------------------

 NO OUTPUT CONTROL FOR STRESS PERIOD    8   TIME STEP    7
 
 SOLVING FOR HEAD 
                                                   Max.-Head-Change                         Max.-Flux-Residual
  Residual-Control   Outer-Iter.   Inner-Iter.     Column Row Layer    Maximum-Head-Change  Column Row Layer    Maximum-Flux-Residual          L2-NORM 
          0                 1           2             1   13     1      -0.2402564499E-01       1   13    1        -0.1311220793E+01      0.2698255375E+01
          0                 2           2             7    6     1      -0.2882539746E+00       7    6    1        -0.1584407443E+02      0.1585221553E+02
          0                 3           2             7    6     1       0.2295773049E-01       7    6    1         0.1277571430E+01      0.1293013365E+01
          0                 4           2             7    6     1      -0.9799594958E-03       7    6    1        -0.5474298745E-01      0.9366676477E-01
          0                 5           2             7    6     1       0.9138009003E-03       7    6    1         0.5173555761E-01      0.6176198193E-01
          0                 6           2             7    6     1       0.7962214347E-03       7    6    1         0.4504341924E-01      0.4751426406E-01
          0                 7           2             7    6     1       0.8086323181E-03       7    6    1         0.4573920294E-01      0.4625382712E-01
          0                 8           2             7    6     1       0.8130322893E-03       7    6    1         0.4598661681E-01      0.4610602160E-01
          0                 9           2             7    6     1       0.8179459658E-03       7    6    1         0.4626396133E-01      0.4630413956E-01
          0                10           2             7    6     1       0.8228417707E-03       7    6    1         0.4654042292E-01      0.4656488843E-01
                                                   Max.-Head-Change                         Max.-Flux-Residual
  Residual-Control   Outer-Iter.   Inner-Iter.     Column Row Layer    Maximum-Head-Change  Column Row Layer    Maximum-Flux-Residual          L2-NORM 
          0                11           2             7    6     1       0.8277550447E-03       7    6    1         0.4681788359E-01      0.4683929724E-01
          0                12           2             7    6     1       0.8327178249E-03       7    6    1         0.4709813885E-01      0.4711906503E-01
          0                13           2             7    6     1       0.8377113562E-03       7    6    1         0.4738012640E-01      0.4740101733E-01
          0                14           2             7    6     1       0.8426861895E-03       7    6    1         0.4766104965E-01      0.4768207946E-01
          0                15           2             7    6     1       0.8477464607E-03       7    6    1         0.4794680022E-01      0.4796791271E-01
          0                16           2             7    6     1       0.8527847042E-03       7    6    1         0.4823129855E-01      0.4825255770E-01
          0                17           2             7    6     1       0.8578748653E-03       7    6    1         0.4851872823E-01      0.4854009279E-01
          0                18           2             7    6     1       0.8629787415E-03       7    6    1         0.4880692791E-01      0.4882843999E-01
          0                19           2             7    6     1       0.8681323699E-03       7    6    1         0.4909793618E-01      0.4911955976E-01
          0                20           2             7    6     1       0.8732998447E-03       7    6    1         0.4938972176E-01      0.4941147107E-01
                                                   Max.-Head-Change                         Max.-Flux-Residual
  Residual-Control   Outer-Iter.   Inner-Iter.     Column Row Layer    Maximum-Head-Change  Column Row Layer    Maximum-Flux-Residual          L2-NORM 
          0                21           2             7    6     1       0.8784833423E-03       7    6    1         0.4968240800E-01      0.4970427891E-01
          0                22           2             7    6     1       0.8836995905E-03       7    6    1         0.4997694107E-01      0.4999896492E-01
          0                23           2             7    6     1       0.8889475755E-03       7    6    1         0.5027326343E-01      0.5029538989E-01
          0                24           2             7    6     1       0.8942104980E-03       7    6    1         0.5057042484E-01      0.5059268927E-01
          0                25           2             7    6     1       0.8995399597E-03       7    6    1         0.5087134405E-01      0.5089376319E-01
          0                26           2             7    6     1       0.9048485265E-03       7    6    1         0.5117107521E-01      0.5119358889E-01
          0                27           2             7    6     1       0.9102089454E-03       7    6    1         0.5147373362E-01      0.5149638168E-01
          0                28           2             7    6     1       0.9155830803E-03       7    6    1         0.5177716172E-01      0.5179995553E-01
          0                29           2             7    6     1       0.9210069694E-03       7    6    1         0.5208339800E-01      0.5210633334E-01
          0                30           2             7    6     1       0.9264278396E-03       7    6    1         0.5238945737E-01      0.5241249861E-01
                                                   Max.-Head-Change                         Max.-Flux-Residual
  Residual-Control   Outer-Iter.   Inner-Iter.     Column Row Layer    Maximum-Head-Change  Column Row Layer    Maximum-Flux-Residual          L2-NORM 
          0                31           2             7    6     1       0.9319163417E-03       7    6    1         0.5269933612E-01      0.5272254327E-01
          0                32           2             7    6     1       0.9374007390E-03       7    6    1         0.5300897634E-01      0.5303228701E-01
          0                33           2             7    6     1       0.9429022502E-03       7    6    1         0.5331957859E-01      0.5334304183E-01
          0                34           2             7    6     1       0.9484701703E-03       7    6    1         0.5363393076E-01      0.5365754733E-01
          0                35           2             7    6     1       0.9540509214E-03       7    6    1         0.5394900214E-01      0.5397271444E-01
          0                36           2             7    6     1       0.9596477570E-03       7    6    1         0.5426497710E-01      0.5428885053E-01
          0                37           2             7    6     1       0.9652942054E-03       7    6    1         0.5458375182E-01      0.5460775656E-01
          0                38           2             7    6     1       0.9709376396E-03       7    6    1         0.5490234966E-01      0.5492648891E-01
          0                39           2             7    6     1       0.9766318478E-03       7    6    1         0.5522381293E-01      0.5524808320E-01
          0                40           2             7    6     1       0.9823398324E-03       7    6    1         0.5554604891E-01      0.5557049683E-01
                                                   Max.-Head-Change                         Max.-Flux-Residual
  Residual-Control   Outer-Iter.   Inner-Iter.     Column Row Layer    Maximum-Head-Change  Column Row Layer    Maximum-Flux-Residual          L2-NORM 
          0                41           2             7    6     1       0.9880975725E-03       7    6    1         0.5587109246E-01      0.5589564399E-01
          0                42           2             7    6     1       0.9938522872E-03       7    6    1         0.5619595841E-01      0.5622066361E-01
          0                43           2             7    6     1       0.9996746426E-03       7    6    1         0.5652464342E-01      0.5654949171E-01
          0                44           2             7    6     1       0.1005492885E-02       7    6    1         0.5685308910E-01      0.5687807152E-01
          0                45           2             7    6     1       0.1011345104E-02       7    6    1         0.5718345015E-01      0.5720858239E-01
          0                46           2             7    6     1       0.1017228886E-02       7    6    1         0.5751559320E-01      0.5754088239E-01
          0                47           2             7    6     1       0.1023161372E-02       7    6    1         0.5785048395E-01      0.5787588756E-01
          0                48           2             7    6     1       0.1029090894E-02       7    6    1         0.5818520042E-01      0.5821076754E-01
          0                49           2             7    6     1       0.1035054326E-02       7    6    1         0.5852182820E-01      0.5854754062E-01
          0                50           2             7    6     1       0.1041083150E-02       7    6    1         0.5886214733E-01      0.5888801070E-01
                                                   Max.-Head-Change                         Max.-Flux-Residual
  Residual-Control   Outer-Iter.   Inner-Iter.     Column Row Layer    Maximum-Head-Change  Column Row Layer    Maximum-Flux-Residual          L2-NORM 
          0                51           2             7    6     1       0.1047074265E-02       7    6    1         0.5920032711E-01      0.5922631099E-01
          0                52           2             7    6     1       0.1053135136E-02       7    6    1         0.5954244536E-01      0.5956861188E-01
          0                53           2             7    6     1       0.1059225486E-02       7    6    1         0.5988622373E-01      0.5991252435E-01
          0                54           2             7    6     1       0.1065314042E-02       7    6    1         0.6022989389E-01      0.6025633666E-01
          0                55           2             7    6     1       0.1071487034E-02       7    6    1         0.6057833218E-01      0.6060493752E-01
          0                56           2             7    6     1       0.1077621150E-02       7    6    1         0.6092456498E-01      0.6095131774E-01
          0                57           2             7    6     1       0.1083841963E-02       7    6    1         0.6127569391E-01      0.6130258036E-01
          0                58           2             7    6     1       0.1090057491E-02       7    6    1         0.6162651677E-01      0.6165355569E-01
          0                59           2             7    6     1       0.1096307074E-02       7    6    1         0.6197925866E-01      0.6200646706E-01
          0                60           2             7    6     1       0.1102588311E-02       7    6    1         0.6233378357E-01      0.6236114409E-01
                                                   Max.-Head-Change                         Max.-Flux-Residual
  Residual-Control   Outer-Iter.   Inner-Iter.     Column Row Layer    Maximum-Head-Change  Column Row Layer    Maximum-Flux-Residual          L2-NORM 
          0                61           2             7    6     1       0.1108918219E-02       7    6    1         0.6269105351E-01      0.6271856336E-01
          0                62           2             7    6     1       0.1115228290E-02       7    6    1         0.6304719477E-01      0.6307484773E-01
          0                63           2             7    6     1       0.1121607038E-02       7    6    1         0.6340721265E-01      0.6343501701E-01
          0                64           2             7    6     1       0.1127981594E-02       7    6    1         0.6376698631E-01      0.6379497420E-01
          0                65           2             7    6     1       0.1134423874E-02       7    6    1         0.6413058238E-01      0.6415869413E-01
          0                66           2             7    6     1       0.1140862021E-02       7    6    1         0.6449393740E-01      0.6452223222E-01
          0                67           2             7    6     1       0.1147351021E-02       7    6    1         0.6486016092E-01      0.6488859994E-01
          0                68           2             7    6     1       0.1153836916E-02       7    6    1         0.6522620162E-01      0.6525480270E-01
          0                69           2             7    6     1       0.1160373603E-02       7    6    1         0.6559510721E-01      0.6562386040E-01
          0                70           2             7    6     1       0.1166924055E-02       7    6    1         0.6596478377E-01      0.6599369182E-01
                                                   Max.-Head-Change                         Max.-Flux-Residual
  Residual-Control   Outer-Iter.   Inner-Iter.     Column Row Layer    Maximum-Head-Change  Column Row Layer    Maximum-Flux-Residual          L2-NORM 
          0                71           2             7    6     1       0.1173524269E-02       7    6    1         0.6633726675E-01      0.6636635119E-01
          0                72           2             7    6     1       0.1180138312E-02       7    6    1         0.6671052415E-01      0.6673977189E-01
          0                73           2             7    6     1       0.1186785245E-02       7    6    1         0.6708563400E-01      0.6711501670E-01
          0                74           2             7    6     1       0.1193447035E-02       7    6    1         0.6746157658E-01      0.6749114479E-01
          0                75           2             7    6     1       0.1200141655E-02       7    6    1         0.6783936802E-01      0.6786907336E-01
          0                76           2             7    6     1       0.1206868004E-02       7    6    1         0.6821894596E-01      0.6824883496E-01
          0                77           2             7    6     1       0.1213609280E-02       7    6    1         0.6859936049E-01      0.6862941213E-01
          0                78           2             7    6     1       0.1220383383E-02       7    6    1         0.6898162354E-01      0.6901183119E-01
          0                79           2             7    6     1       0.1227189214E-02       7    6    1         0.6936567297E-01      0.6939605325E-01
          0                80           2             7    6     1       0.1234026842E-02       7    6    1         0.6975151256E-01      0.6978204051E-01
                                                   Max.-Head-Change                         Max.-Flux-Residual
  Residual-Control   Outer-Iter.   Inner-Iter.     Column Row Layer    Maximum-Head-Change  Column Row Layer    Maximum-Flux-Residual          L2-NORM 
          0                81           2             7    6     1       0.1240879394E-02       7    6    1         0.7013818836E-01      0.7016889354E-01
          0                82           2             7    6     1       0.1247764771E-02       7    6    1         0.7052671250E-01      0.7055758620E-01
          0                83           2             7    6     1       0.1254665009E-02       7    6    1         0.7091606919E-01      0.7094711325E-01
          0                84           2             7    6     1       0.1261598075E-02       7    6    1         0.7130727432E-01      0.7133846622E-01
          0                85           2             7    6     1       0.1268562871E-02       7    6    1         0.7170026564E-01      0.7173163995E-01
          0                86           2             7    6     1       0.1275559464E-02       7    6    1         0.7209504679E-01      0.7212661104E-01
          0                87           2             7    6     1       0.1282570979E-02       7    6    1         0.7249066389E-01      0.7252236214E-01
          0                88           2             7    6     1       0.1289598450E-02       7    6    1         0.7288717543E-01      0.7291905657E-01
          0                89           2             7    6     1       0.1296658684E-02       7    6    1         0.7328553151E-01      0.7331760842E-01
          0                90           2             7    6     1       0.1303750651E-02       7    6    1         0.7368567370E-01      0.7371785645E-01
                                                   Max.-Head-Change                         Max.-Flux-Residual
  Residual-Control   Outer-Iter.   Inner-Iter.     Column Row Layer    Maximum-Head-Change  Column Row Layer    Maximum-Flux-Residual          L2-NORM 
          0                91           2             7    6     1       0.1310857543E-02       7    6    1         0.7408665187E-01      0.7411905225E-01
          0                92           2             7    6     1       0.1317997262E-02       7    6    1         0.7448947802E-01      0.7452203261E-01
          0                93           2             7    6     1       0.1325151839E-02       7    6    1         0.7489313626E-01      0.7492588317E-01
          0                94           2             7    6     1       0.1332339247E-02       7    6    1         0.7529864266E-01      0.7533154462E-01
          0                95           2             7    6     1       0.1339541512E-02       7    6    1         0.7570498104E-01      0.7573807862E-01
          0                96           2             7    6     1       0.1346776608E-02       7    6    1         0.7611316750E-01      0.7614639735E-01
          0                97           2             7    6     1       0.1354026561E-02       7    6    1         0.7652218588E-01      0.7655563911E-01
          0                98           2             7    6     1       0.1361292474E-02       7    6    1         0.7693209861E-01      0.7696570000E-01
          0                99           2             7    6     1       0.1368591151E-02       7    6    1         0.7734385549E-01      0.7737763156E-01
          0               100           2             7    6     1       0.1375921559E-02       7    6    1         0.7775739805E-01      0.7779136003E-01
                                                   Max.-Head-Change                         Max.-Flux-Residual
  Residual-Control   Outer-Iter.   Inner-Iter.     Column Row Layer    Maximum-Head-Change  Column Row Layer    Maximum-Flux-Residual          L2-NORM 
          0               101           2             7    6     1       0.1383250020E-02       7    6    1         0.7817082254E-01      0.7820494712E-01
          0               102           2             7    6     1       0.1390612344E-02       7    6    1         0.7858615333E-01      0.7862046191E-01
          0               103           2             7    6     1       0.1398006333E-02       7    6    1         0.7900326588E-01      0.7903775136E-01
          0               104           2             7    6     1       0.1405415249E-02       7    6    1         0.7942121410E-01      0.7945586112E-01
          0               105           2             7    6     1       0.1412840120E-02       7    6    1         0.7984005622E-01      0.7987490903E-01
          0               106           2             7    6     1       0.1420280883E-02       7    6    1         0.8025978859E-01      0.8029482728E-01
          0               107           2             7    6     1       0.1427737541E-02       7    6    1         0.8068041144E-01      0.8071558367E-01
          0               108           2             7    6     1       0.1435226968E-02       7    6    1         0.8110287836E-01      0.8113826915E-01
          0               109           2             7    6     1       0.1442731253E-02       7    6    1         0.8152617696E-01      0.8156171041E-01
          0               110           2             7    6     1       0.1450251498E-02       7    6    1         0.8195036952E-01      0.8198612184E-01
                                                   Max.-Head-Change                         Max.-Flux-Residual
  Residual-Control   Outer-Iter.   Inner-Iter.     Column Row Layer    Maximum-Head-Change  Column Row Layer    Maximum-Flux-Residual          L2-NORM 
          0               111           2             7    6     1       0.1457787634E-02       7    6    1         0.8237545219E-01      0.8241136542E-01
          0               112           2             7    6     1       0.1465339665E-02       7    6    1         0.8280142519E-01      0.8283750222E-01
          0               113           2             7    6     1       0.1472907590E-02       7    6    1         0.8322828845E-01      0.8326457101E-01
          0               114           2             7    6     1       0.1480508286E-02       7    6    1         0.8365699567E-01      0.8369345393E-01
          0               115           2             7    6     1       0.1488106964E-02       7    6    1         0.8408558062E-01      0.8412221175E-01
          0               116           2             7    6     1       0.1495739514E-02       7    6    1         0.8451607190E-01      0.8455289258E-01
          0               117           2             7    6     1       0.1503353102E-02       7    6    1         0.8494548331E-01      0.8498248680E-01
          0               118           2             7    6     1       0.1511001606E-02       7    6    1         0.8537686010E-01      0.8541404321E-01
          0               119           2             7    6     1       0.1518681709E-02       7    6    1         0.8581001436E-01      0.8584738091E-01
          0               120           2             7    6     1       0.1526359863E-02       7    6    1         0.8624305027E-01      0.8628059820E-01
                                                   Max.-Head-Change                         Max.-Flux-Residual
  Residual-Control   Outer-Iter.   Inner-Iter.     Column Row Layer    Maximum-Head-Change  Column Row Layer    Maximum-Flux-Residual          L2-NORM 
          0               121           2             7    6     1       0.1534021262E-02       7    6    1         0.8667513120E-01      0.8671284453E-01
          0               122           2             7    6     1       0.1541751193E-02       7    6    1         0.8711107706E-01      0.8714898600E-01
          0               123           2             7    6     1       0.1549443147E-02       7    6    1         0.8754486830E-01      0.8758296927E-01
          0               124           2             7    6     1       0.1557171192E-02       7    6    1         0.8798069125E-01      0.8801897060E-01
          0               125           2             7    6     1       0.1564897010E-02       7    6    1         0.8841638000E-01      0.8845483787E-01
          0               126           2             7    6     1       0.1572622963E-02       7    6    1         0.8885206833E-01      0.8889071543E-01
          0               127           2             7    6     1       0.1580382659E-02       7    6    1         0.8928965533E-01      0.8932848932E-01
          0               128           2             7    6     1       0.1588140270E-02       7    6    1         0.8972711625E-01      0.8976612808E-01
          0               129           2             7    6     1       0.1595898009E-02       7    6    1         0.9016457625E-01      0.9020376128E-01
          0               130           2             7    6     1       0.1603689492E-02       7    6    1         0.9060393490E-01      0.9064332224E-01
                                                   Max.-Head-Change                         Max.-Flux-Residual
  Residual-Control   Outer-Iter.   Inner-Iter.     Column Row Layer    Maximum-Head-Change  Column Row Layer    Maximum-Flux-Residual          L2-NORM 
          0               131           2             7    6     1       0.1611445135E-02       7    6    1         0.9104126002E-01      0.9108082600E-01
          0               132           2             7    6     1       0.1619236743E-02       7    6    1         0.9148060950E-01      0.9152034335E-01
          0               133           2             7    6     1       0.1626992372E-02       7    6    1         0.9191791764E-01      0.9195786253E-01
          0               134           2             7    6     1       0.1634783975E-02       7    6    1         0.9235725066E-01      0.9239735621E-01
          0               135           2             7    6     1       0.1642573354E-02       7    6    1         0.9279644961E-01      0.9283674265E-01
          0               136           2             7    6     1       0.1650362867E-02       7    6    1         0.9323564809E-01      0.9327612654E-01
          0               137           2             7    6     1       0.1658152369E-02       7    6    1         0.9367483781E-01      0.9371548298E-01
          0               138           2             7    6     1       0.1665941869E-02       7    6    1         0.9411401930E-01      0.9415485715E-01
          0               139           2             7    6     1       0.1673697609E-02       7    6    1         0.9455128516E-01      0.9459233755E-01
          0               140           2             7    6     1       0.1681489189E-02       7    6    1         0.9499056822E-01      0.9503176875E-01
                                                   Max.-Head-Change                         Max.-Flux-Residual
  Residual-Control   Outer-Iter.   Inner-Iter.     Column Row Layer    Maximum-Head-Change  Column Row Layer    Maximum-Flux-Residual          L2-NORM 
          0               141           2             7    6     1       0.1689278549E-02       7    6    1         0.9542971757E-01      0.9547110968E-01
          0               142           2             7    6     1       0.1697034287E-02       7    6    1         0.9586695910E-01      0.9590853024E-01
          0               143           2             7    6     1       0.1704792099E-02       7    6    1         0.9630431001E-01      0.9634607027E-01
          0               144           2             7    6     1       0.1712549778E-02       7    6    1         0.9674164542E-01      0.9678357749E-01
          0               145           2             7    6     1       0.1720307463E-02       7    6    1         0.9717897305E-01      0.9722108738E-01
          0               146           2             7    6     1       0.1728031384E-02       7    6    1         0.9761438504E-01      0.9765667860E-01
          0               147           2             7    6     1       0.1735723629E-02       7    6    1         0.9804799969E-01      0.9809047199E-01
          0               148           2             7    6     1       0.1743451591E-02       7    6    1         0.9848362447E-01      0.9852628987E-01
          0               149           2             7    6     1       0.1751143577E-02       7    6    1         0.9891720850E-01      0.9896005153E-01
          0               150           2             7    6     1       0.1758804026E-02       7    6    1         0.9934900310E-01      0.9939201144E-01
                                                   Max.-Head-Change                         Max.-Flux-Residual
  Residual-Control   Outer-Iter.   Inner-Iter.     Column Row Layer    Maximum-Head-Change  Column Row Layer    Maximum-Flux-Residual          L2-NORM 
          0               151           2             7    6     1       0.1766466422E-02       7    6    1         0.9978090000E-01      0.9982409744E-01
          0               152           2             7    6     1       0.1774128694E-02       7    6    1         0.1002127819E+00      0.1002561545E+00
          0               153           2             7    6     1       0.1781757207E-02       7    6    1         0.1006427488E+00      0.1006862978E+00
          0               154           2             7    6     1       0.1789354045E-02       7    6    1         0.1010709185E+00      0.1011146379E+00
          0               155           2             7    6     1       0.1796919078E-02       7    6    1         0.1014972839E+00      0.1015411841E+00
          0               156           2             7    6     1       0.1804486075E-02       7    6    1         0.1019237527E+00      0.1019678192E+00
          0               157           2             7    6     1       0.1811985421E-02       7    6    1         0.1023463918E+00      0.1023906273E+00
          0               158           2             7    6     1       0.1819488953E-02       7    6    1         0.1027692603E+00      0.1028136949E+00
          0               159           2             7    6     1       0.1826958458E-02       7    6    1         0.1031901987E+00      0.1032347864E+00
          0               160           2             7    6     1       0.1834396303E-02       7    6    1         0.1036093411E+00      0.1036540988E+00
                                                   Max.-Head-Change                         Max.-Flux-Residual
  Residual-Control   Outer-Iter.   Inner-Iter.     Column Row Layer    Maximum-Head-Change  Column Row Layer    Maximum-Flux-Residual          L2-NORM 
          0               161           2             7    6     1       0.1841802341E-02       7    6    1         0.1040266795E+00      0.1040716328E+00
          0               162           2             7    6     1       0.1849176583E-02       7    6    1         0.1044422142E+00      0.1044873035E+00
          0               163           2             7    6     1       0.1856485261E-02       7    6    1         0.1048540379E+00      0.1048992935E+00
          0               164           2             7    6     1       0.1863797999E-02       7    6    1         0.1052660840E+00      0.1053115460E+00
          0               165           2             7    6     1       0.1871042950E-02       7    6    1         0.1056742934E+00      0.1057198707E+00
          0               166           2             7    6     1       0.1878258337E-02       7    6    1         0.1060808257E+00      0.1061266100E+00
          0               167           2             7    6     1       0.1885408018E-02       7    6    1         0.1064836395E+00      0.1065295770E+00
          0               168           2             7    6     1       0.1892528006E-02       7    6    1         0.1068847691E+00      0.1069308618E+00
          0               169           2             7    6     1       0.1899582297E-02       7    6    1         0.1072821807E+00      0.1073284179E+00
          0               170           2             7    6     1       0.1906573128E-02       7    6    1         0.1076760009E+00      0.1077224317E+00
                                                   Max.-Head-Change                         Max.-Flux-Residual
  Residual-Control   Outer-Iter.   Inner-Iter.     Column Row Layer    Maximum-Head-Change  Column Row Layer    Maximum-Flux-Residual          L2-NORM 
          0               171           2             7    6     1       0.1913534124E-02       7    6    1         0.1080681294E+00      0.1081146874E+00
          0               172           2             7    6     1       0.1920429432E-02       7    6    1         0.1084565406E+00      0.1085032695E+00
          0               173           2             7    6     1       0.1927328814E-02       7    6    1         0.1088451753E+00      0.1088920547E+00
          0               174           2             7    6     1       0.1934126633E-02       7    6    1         0.1092280663E+00      0.1092750859E+00
          0               175           2             7    6     1       0.1940829451E-02       7    6    1         0.1096055851E+00      0.1096527810E+00
          0               176           2             7    6     1       0.1947470627E-02       7    6    1         0.1099796162E+00      0.1100269411E+00
          0               177           2             7    6     1       0.1954048088E-02       7    6    1         0.1103500423E+00      0.1103975396E+00
          0               178           2             7    6     1       0.1960561964E-02       7    6    1         0.1107168708E+00      0.1107644850E+00
          0               179           2             7    6     1       0.1966978477E-02       7    6    1         0.1110781941E+00      0.1111259679E+00
          0               180           2             7    6     1       0.1973333496E-02       7    6    1         0.1114360384E+00      0.1114839753E+00
                                                   Max.-Head-Change                         Max.-Flux-Residual
  Residual-Control   Outer-Iter.   Inner-Iter.     Column Row Layer    Maximum-Head-Change  Column Row Layer    Maximum-Flux-Residual          L2-NORM 
          0               181           2             7    6     1       0.1979591021E-02       7    6    1         0.1117883703E+00      0.1118363962E+00
          0               182           2             7    6     1       0.1985787062E-02       7    6    1         0.1121372239E+00      0.1121854109E+00
          0               183           2             7    6     1       0.1991885606E-02       7    6    1         0.1124805654E+00      0.1125288840E+00
          0               184           2             7    6     1       0.2002560921E-02       7    6    1         0.1129003976E+00      0.1129485253E+00
          0               185           2             7    6     1       0.2006972678E-02       7    6    1         0.1131477524E+00      0.1131961293E+00
          0               186           2             7    6     1       0.2012889483E-02       7    6    1         0.1134802441E+00      0.1135287670E+00
          0               187           2             7    6     1       0.2018609847E-02       7    6    1         0.1138016912E+00      0.1138503351E+00
          0               188           2             7    6     1       0.2137808439E-02       7    6    1         0.1205215520E+00      0.1205677428E+00
          0               189           2             7    6     1       0.2563695039E-02       7    6    1         0.1445327639E+00      0.1445716790E+00
          0               190           2             7    6     1       0.2650703188E-02       7    6    1         0.1494340509E+00      0.1494726355E+00
                                                   Max.-Head-Change                         Max.-Flux-Residual
  Residual-Control   Outer-Iter.   Inner-Iter.     Column Row Layer    Maximum-Head-Change  Column Row Layer    Maximum-Flux-Residual          L2-NORM 
          0               191           2             7    6     1       0.2672931976E-02       7    6    1         0.1506848263E+00      0.1507236273E+00
          0               192           2             7    6     1       0.2682691162E-02       7    6    1         0.1512333389E+00      0.1512723012E+00
          0               193           2             7    6     1       0.2689932337E-02       7    6    1         0.1516401077E+00      0.1516790912E+00
          0               194           2             7    6     1       0.6105019157E-03       7    6    1         0.3439740901E-01      0.3456832758E-01
          0               195           2             7    6     1       0.1165560241E-03       7    6    1         0.6562959615E-02      0.7342482187E-02
          0               196           1             2   13     1      -0.4895570887E-04       2   13    1        -0.2821946477E-02      0.3495516841E-02
          0               197           1             2   13     1      -0.4883875863E-04       2   13    1        -0.2815129077E-02      0.3262630339E-02
          0               198           1             2   13     1      -0.4870182172E-04       2   13    1        -0.2807165741E-02      0.3244918148E-02
          0               199           1             2   13     1      -0.4855806238E-04       2   13    1        -0.2798798806E-02      0.3235060808E-02
          0               200           1             2   13     1      -0.4841870144E-04       2   13    1        -0.2790683532E-02      0.3226056076E-02

    ------------------------------------------------
       NWT REQUIRED          200 OUTER ITERATIONS 
       AND A TOTAL OF        395 INNER ITERATIONS.
    ------------------------------------------------

 NO OUTPUT CONTROL FOR STRESS PERIOD    8   TIME STEP    8



 STREAM LISTING     PERIOD      8   STEP        8

 LAYER ROW COL. STREAM  RCH.  FLOW INTO     FLOW TO   FLOW OUT OF   OVRLND.     DIRECT     STREAM       STREAM     STREAM     STREAM   STREAMBED  STREAMBED
                SEG.NO.  NO.  STRM. RCH.    AQUIFER    STRM. RCH.    RUNOFF     PRECIP       ET          HEAD       DEPTH      WIDTH   CONDCTNC.   GRADIENT

   1    1    1     1     1    3.5000E+01  2.8629E-11   3.5000E+01  0.000E+00  0.000E+00  0.000E+00  1.09434E+03  1.292E+00  1.482E+01  6.670E-12  1.431E+00
   1    2    2     1     2    3.5000E+01  4.4488E-11   3.5000E+01  0.000E+00  0.000E+00  0.000E+00  1.08935E+03  1.292E+00  1.481E+01  1.037E-11  1.431E+00
   1    3    3     1     3    3.5000E+01  3.8148E-11   3.5000E+01  0.000E+00  0.000E+00  0.000E+00  1.08371E+03  1.292E+00  1.481E+01  8.888E-12  1.431E+00
   1    3    4     1     4    3.5000E+01  3.5294E-11   3.5000E+01  0.000E+00  0.000E+00  0.000E+00  1.07870E+03  1.292E+00  1.482E+01  8.223E-12  1.431E+00
   1    4    5     2     1    3.3000E+01  3.4491E-01   3.2655E+01  0.000E+00  0.000E+00  0.000E+00  1.07336E+03  1.422E+00  1.200E+01  7.800E-02  1.474E+00
   1    5    6     2     2    3.2655E+01  2.6484E-01   3.2390E+01  0.000E+00  0.000E+00  0.000E+00  1.06792E+03  1.414E+00  1.200E+01  6.000E-02  1.471E+00
   1    6    6     2     3    3.2390E+01  2.6443E-01   3.2126E+01  0.000E+00  0.000E+00  0.000E+00  1.06320E+03  1.407E+00  1.200E+01  6.000E-02  1.469E+00
   1    7    6     2     4    3.2126E+01  2.6401E-01   3.1862E+01  0.000E+00  0.000E+00  0.000E+00  1.05848E+03  1.400E+00  1.200E+01  6.000E-02  1.467E+00
   1    8    6     2     5    3.1862E+01  2.6359E-01   3.1598E+01  0.000E+00  0.000E+00  0.000E+00  1.05375E+03  1.393E+00  1.200E+01  6.000E-02  1.464E+00
   1    3    5     3     1    2.0000E+00  2.8252E-01   1.7175E+00  0.000E+00  0.000E+00  0.000E+00  1.07555E+03  1.909E+00  9.636E+00  7.227E-02  1.955E+00
   1    3    6     3     2    1.7175E+00  2.4905E-01   1.4684E+00  0.000E+00  0.000E+00  0.000E+00  1.07264E+03  1.727E+00  8.909E+00  6.682E-02  1.864E+00
   1    3    7     3     3    1.4684E+00  1.9718E-01   1.2712E+00  0.000E+00  0.000E+00  0.000E+00  1.06987E+03  1.555E+00  8.218E+00  5.547E-02  1.777E+00
   1    4    8     3     4    1.2712E+00  2.2567E-01   1.0456E+00  0.000E+00  0.000E+00  0.000E+00  1.06682E+03  1.364E+00  7.455E+00  6.709E-02  1.682E+00
   1    5    8     3     5    1.0456E+00  1.5790E-01   8.8768E-01  0.000E+00  0.000E+00  0.000E+00  1.06362E+03  1.164E+00  6.655E+00  4.991E-02  1.582E+00
   1    6    8     3     6    8.8768E-01  5.5980E-02   8.3170E-01  0.000E+00  0.000E+00  0.000E+00  1.06158E+03  1.036E+00  6.145E+00  1.844E-02  1.518E+00
   1    5   10     4     1    1.0000E+01  9.0919E-02   9.9091E+00  0.000E+00  0.000E+00  0.000E+00  1.07836E+03  6.368E-01  1.000E+01  2.500E-02  1.212E+00
   1    5    9     4     2    9.9091E+00  1.8158E-01   9.7275E+00  0.000E+00  0.000E+00  0.000E+00  1.07154E+03  6.315E-01  1.000E+01  5.000E-02  1.211E+00
   1    6    8     4     3    9.7275E+00  1.2689E-01   9.6006E+00  0.000E+00  0.000E+00  0.000E+00  1.06381E+03  6.256E-01  1.000E+01  3.500E-02  1.209E+00
   1    6    8     5     1    1.0432E+01  2.2686E-09   1.0432E+01  0.000E+00  0.000E+00  0.000E+00  1.05868E+03  6.790E-01  1.542E+01  6.166E-10  1.226E+00
   1    7    7     5     2    1.0432E+01  2.8306E-09   1.0432E+01  0.000E+00  0.000E+00  0.000E+00  1.05418E+03  6.784E-01  1.539E+01  7.695E-10  1.226E+00
   1    8    7     5     3    1.0432E+01  1.9868E-09   1.0432E+01  0.000E+00  0.000E+00  0.000E+00  1.04993E+03  6.794E-01  1.543E+01  5.400E-10  1.226E+00
   1    8    6     5     4    1.0432E+01  1.4217E-09   1.0432E+01  0.000E+00  0.000E+00  0.000E+00  1.04693E+03  6.800E-01  1.545E+01  3.863E-10  1.227E+00
   1    9    6     6     1    2.5060E+01  2.5315E-01   2.4807E+01  0.000E+00  0.000E+00  0.000E+00  1.04395E+03  1.219E+00  1.200E+01  6.000E-02  1.406E+00
   1   10    7     6     2    2.4807E+01  2.5270E-01   2.4554E+01  0.000E+00  0.000E+00  0.000E+00  1.03939E+03  1.212E+00  1.200E+01  6.000E-02  1.404E+00
   1   11    7     6     3    2.4554E+01  2.5225E-01   2.4302E+01  0.000E+00  0.000E+00  0.000E+00  1.03484E+03  1.204E+00  1.200E+01  6.000E-02  1.401E+00
   1   12    7     6     4    2.4302E+01  2.5180E-01   2.4050E+01  0.000E+00  0.000E+00  0.000E+00  1.03029E+03  1.197E+00  1.200E+01  6.000E-02  1.399E+00
   1   13    7     6     5    2.4050E+01  1.0060E-01   2.3949E+01  0.000E+00  0.000E+00  0.000E+00  1.02710E+03  1.191E+00  1.200E+01  2.400E-02  1.397E+00
   1   14    9     7     1    1.5000E+02  2.9539E-08   1.5000E+02  0.000E+00  0.000E+00  0.000E+00  1.03986E+03  2.283E+00  5.528E+01  5.591E-09  1.761E+00
   1   13    8     7     2    1.5000E+02  3.2486E-14   1.5000E+02  0.000E+00  0.000E+00  0.000E+00  1.03478E+03  2.283E+00  5.527E+01  6.150E-15  1.761E+00
   1   13    7     7     3    1.5000E+02  2.9539E-08   1.5000E+02  0.000E+00  0.000E+00  0.000E+00  1.02970E+03  2.283E+00  5.528E+01  5.591E-09  1.761E+00
   1   13    6     8     1    1.7395E+02  2.6190E-16   1.7395E+02  0.000E+00  0.000E+00  0.000E+00  1.02484E+03  2.969E+00  4.306E+01  4.387E-17  1.990E+00
   1   13    5     8     2    1.7395E+02  2.6190E-16   1.7395E+02  0.000E+00  0.000E+00  0.000E+00  1.01859E+03  2.969E+00  4.306E+01  4.387E-17  1.990E+00
   1   13    4     8     3    1.7395E+02  2.1438E-16   1.7395E+02  0.000E+00  0.000E+00  0.000E+00  1.01235E+03  2.971E+00  4.308E+01  4.390E-17  1.628E+00
   1   13    3     8     4    1.7395E+02  5.5569E-08   1.7395E+02  0.000E+00  0.000E+00  0.000E+00  1.00610E+03  2.976E+00  4.315E+01  4.397E-08  4.212E-01
   1   13    2     8     5    1.7395E+02 -1.2777E+00   1.7523E+02  0.000E+00  0.000E+00  0.000E+00  9.99857E+02  2.982E+00  4.324E+01  4.406E+00 -9.666E-02
   1   13    1     8     6    1.7523E+02 -1.3750E+00   1.7660E+02  0.000E+00  0.000E+00  0.000E+00  9.94865E+02  2.990E+00  4.336E+01  2.651E+00 -1.729E-01
   1    6    8     9     1    1.6971E+01  0.0000E+00   1.6971E+01  0.000E+00  0.000E+00  0.000E+00  1.07924E+03  7.402E-01  4.000E+00  0.000E+00  1.247E+00





UNSATURATED ZONE PACKAGE VOLUMETRIC BUDGET FOR  TIME STEP     8 STRESS PERIOD    8
  ------------------------------------------------------------------------------



     CUMULATIVE VOLUMES      L**3       RATES FOR THIS TIME STEP      L**3/T
     ------------------                 ------------------------

           IN:                                      IN:
           ---                                      ---
        INFILTRATION =    22927181.0471          INFILTRATION =          17.8183

          OUT:                                     OUT:
          ----                                     ----
              UZF ET =   483790554.8665                UZF ET =         174.7337
        UZF RECHARGE =   466593680.9150          UZF RECHARGE =          26.8146

            IN - OUT =  -927457054.7345              IN - OUT =        -183.7300

          STORAGE:                                 STORAGE:
          --------                                 --------
      STORAGE CHANGE =  -927452665.6097        STORAGE CHANGE =        -183.7309

 PERCENT DISCREPANCY IS DIFFERENCE BETWEEN IN-OUT MINUS CHANGE IN STORAGE
 DIVIDED BY THE AVERAGE OF IN AND OUT TIMES 100

 PERCENT DISCREPANCY =          -0.00     PERCENT DISCREPANCY =           0.00







         ****FAILED TO MEET SOLVER CONVERGENCE CRITERIA IN TIME STEP    8 OF STRESS PERIOD    8****
1
  VOLUMETRIC BUDGET FOR ENTIRE MODEL AT END OF TIME STEP    8, STRESS PERIOD   8
  ------------------------------------------------------------------------------

     CUMULATIVE VOLUMES      L**3       RATES FOR THIS TIME STEP      L**3/T
     ------------------                 ------------------------

           IN:                                      IN:
           ---                                      ---
             STORAGE =     6457900.5000               STORAGE =           3.8227
       CONSTANT HEAD =           0.0000         CONSTANT HEAD =           0.0000
               WELLS =           0.0000                 WELLS =           0.0000
     HEAD DEP BOUNDS =    20199408.0000       HEAD DEP BOUNDS =           1.0414
      STREAM LEAKAGE =    76407312.0000        STREAM LEAKAGE =           4.0800
        UZF RECHARGE =   466593632.0000          UZF RECHARGE =          26.8146
               GW ET =           0.0000                 GW ET =           0.0000
     SURFACE LEAKAGE =           0.0000       SURFACE LEAKAGE =           0.0000

            TOTAL IN =   569658240.0000              TOTAL IN =          35.7587

          OUT:                                     OUT:
          ----                                     ----
             STORAGE =   504584320.0000               STORAGE =          27.9954
       CONSTANT HEAD =           0.0000         CONSTANT HEAD =           0.0000
               WELLS =           0.0000                 WELLS =           0.0000
     HEAD DEP BOUNDS =     5516015.5000       HEAD DEP BOUNDS =           0.2806
      STREAM LEAKAGE =    49408796.0000        STREAM LEAKAGE =           2.6527
        UZF RECHARGE =           0.0000          UZF RECHARGE =           0.0000
               GW ET =    10111409.0000                 GW ET =           4.8299
     SURFACE LEAKAGE =           0.0000       SURFACE LEAKAGE =           0.0000

           TOTAL OUT =   569620544.0000             TOTAL OUT =          35.7586

            IN - OUT =       37696.0000              IN - OUT =       1.1444E-04

 PERCENT DISCREPANCY =           0.01     PERCENT DISCREPANCY =           0.00






         TIME SUMMARY AT END OF TIME STEP    8 IN STRESS PERIOD    8
                    SECONDS     MINUTES      HOURS       DAYS        YEARS
                    -----------------------------------------------------------
   TIME STEP LENGTH  87600.      1460.0      24.333      1.0139     2.77588E-03
 STRESS PERIOD TIME 7.00800E+05  11680.      194.67      8.1111     2.22070E-02
         TOTAL TIME 1.90968E+07 3.18280E+05  5304.7      221.03     0.60514    
1
 
 SOLVING FOR HEAD 
                                                   Max.-Head-Change                         Max.-Flux-Residual
  Residual-Control   Outer-Iter.   Inner-Iter.     Column Row Layer    Maximum-Head-Change  Column Row Layer    Maximum-Flux-Residual          L2-NORM 
          0                 1           2             1   13     1      -0.2273904517E-01       1   13    1        -0.1240566695E+01      0.2736808326E+01
          0                 2           2             7    6     1      -0.2867046172E+00       7    6    1        -0.1575893925E+02      0.1576714346E+02
          0                 3           2             7    6     1       0.2497907028E-01       7    6    1         0.1389844792E+01      0.1404016131E+01
          0                 4           2             7    6     1       0.1014156939E-02       7    6    1         0.5651157056E-01      0.9461397120E-01
          0                 5           2             7    6     1       0.2948229741E-02       7    6    1         0.1637949663E+00      0.1672750693E+00
          0                 6           2             7    6     1       0.2802746849E-02       7    6    1         0.1556704191E+00      0.1564652609E+00
          0                 7           2             7    6     1       0.2822999844E-02       7    6    1         0.1567880553E+00      0.1570044592E+00
          0                 8           2             7    6     1       0.2829835749E-02       7    6    1         0.1571651852E+00      0.1572664788E+00
          0                 9           2             7    6     1       0.2837706108E-02       7    6    1         0.1576006908E+00      0.1576790593E+00
          0                10           2             7    6     1       0.2845455432E-02       7    6    1         0.1580296021E+00      0.1581035406E+00
                                                   Max.-Head-Change                         Max.-Flux-Residual
  Residual-Control   Outer-Iter.   Inner-Iter.     Column Row Layer    Maximum-Head-Change  Column Row Layer    Maximum-Flux-Residual          L2-NORM 
          0                11           2             7    6     1       0.2853213943E-02       7    6    1         0.1584590333E+00      0.1585321941E+00
          0                12           2             7    6     1       0.2860920190E-02       7    6    1         0.1588855532E+00      0.1589587290E+00
          0                13           2             7    6     1       0.2868647816E-02       7    6    1         0.1593132517E+00      0.1593865630E+00
          0                14           2             7    6     1       0.2876322240E-02       7    6    1         0.1597379861E+00      0.1598114789E+00
          0                15           2             7    6     1       0.2884000931E-02       7    6    1         0.1601629496E+00      0.1602366000E+00
          0                16           2             7    6     1       0.2891627464E-02       7    6    1         0.1605850218E+00      0.1606588503E+00
          0                17           2             7    6     1       0.2899240534E-02       7    6    1         0.1610063546E+00      0.1610803669E+00
          0                18           2             7    6     1       0.2906820539E-02       7    6    1         0.1614258436E+00      0.1615000206E+00
          0                19           2             7    6     1       0.2914386014E-02       7    6    1         0.1618445184E+00      0.1619188781E+00
          0                20           2             7    6     1       0.2921918307E-02       7    6    1         0.1622613428E+00      0.1623358464E+00
                                                   Max.-Head-Change                         Max.-Flux-Residual
  Residual-Control   Outer-Iter.   Inner-Iter.     Column Row Layer    Maximum-Head-Change  Column Row Layer    Maximum-Flux-Residual          L2-NORM 
          0                21           2             7    6     1       0.2929418912E-02       7    6    1         0.1626764000E+00      0.1627511069E+00
          0                22           2             7    6     1       0.2936870535E-02       7    6    1         0.1630887297E+00      0.1631635979E+00
          0                23           2             7    6     1       0.2944326077E-02       7    6    1         0.1635012702E+00      0.1635762994E+00
          0                24           2             7    6     1       0.2951712615E-02       7    6    1         0.1639099707E+00      0.1639851744E+00
          0                25           2             7    6     1       0.2959087505E-02       7    6    1         0.1643180178E+00      0.1643933872E+00
          0                26           2             7    6     1       0.2966411808E-02       7    6    1         0.1647232481E+00      0.1647987887E+00
          0                27           2             7    6     1       0.2973705817E-02       7    6    1         0.1651267892E+00      0.1652024892E+00
          0                28           2             7    6     1       0.2980950733E-02       7    6    1         0.1655275968E+00      0.1656034123E+00
          0                29           2             7    6     1       0.2988165236E-02       7    6    1         0.1659267087E+00      0.1660027709E+00
          0                30           2             7    6     1       0.2995330654E-02       7    6    1         0.1663230878E+00      0.1663992736E+00
                                                   Max.-Head-Change                         Max.-Flux-Residual
  Residual-Control   Outer-Iter.   Inner-Iter.     Column Row Layer    Maximum-Head-Change  Column Row Layer    Maximum-Flux-Residual          L2-NORM 
          0                31           2             7    6     1       0.3002448488E-02       7    6    1         0.1667168175E+00      0.1667931543E+00
          0                32           2             7    6     1       0.3009518614E-02       7    6    1         0.1671078912E+00      0.1671844112E+00
          0                33           2             7    6     1       0.3016558216E-02       7    6    1         0.1674972633E+00      0.1675739039E+00
          0                34           2             7    6     1       0.3023531569E-02       7    6    1         0.1678829496E+00      0.1679597498E+00
          0                35           2             7    6     1       0.3030458715E-02       7    6    1         0.1682660635E+00      0.1683430423E+00
          0                36           2             7    6     1       0.3037320870E-02       7    6    1         0.1686455618E+00      0.1687226907E+00
          0                37           2             7    6     1       0.3044153888E-02       7    6    1         0.1690234360E+00      0.1691006824E+00
          0                38           2             7    6     1       0.3050903373E-02       7    6    1         0.1693966648E+00      0.1694740884E+00
          0                39           2             7    6     1       0.3057608037E-02       7    6    1         0.1697673988E+00      0.1698449631E+00
          0                40           2             7    6     1       0.3064247599E-02       7    6    1         0.1701345113E+00      0.1702122362E+00
                                                   Max.-Head-Change                         Max.-Flux-Residual
  Residual-Control   Outer-Iter.   Inner-Iter.     Column Row Layer    Maximum-Head-Change  Column Row Layer    Maximum-Flux-Residual          L2-NORM 
          0                41           2             7    6     1       0.3070823688E-02       7    6    1         0.1704980931E+00      0.1705759420E+00
          0                42           2             7    6     1       0.3077336171E-02       7    6    1         0.1708581371E+00      0.1709361219E+00
          0                43           2             7    6     1       0.3083767888E-02       7    6    1         0.1712136902E+00      0.1712918254E+00
          0                44           2             7    6     1       0.3090137389E-02       7    6    1         0.1715657829E+00      0.1716440427E+00
          0                45           2             7    6     1       0.3096443184E-02       7    6    1         0.1719143324E+00      0.1719927285E+00
          0                46           2             7    6     1       0.3102668218E-02       7    6    1         0.1722583917E+00      0.1723369244E+00
          0                47           2             7    6     1       0.3108813865E-02       7    6    1         0.1725980373E+00      0.1726767196E+00
          0                48           2             7    6     1       0.3114880009E-02       7    6    1         0.1729332632E+00      0.1730120603E+00
          0                49           2             7    6     1       0.3120883839E-02       7    6    1         0.1732650236E+00      0.1733439471E+00
          0                50           2             7    6     1       0.3126789620E-02       7    6    1         0.1735913344E+00      0.1736703650E+00
                                                   Max.-Head-Change                         Max.-Flux-Residual
  Residual-Control   Outer-Iter.   Inner-Iter.     Column Row Layer    Maximum-Head-Change  Column Row Layer    Maximum-Flux-Residual          L2-NORM 
          0                51           2             7    6     1       0.3132600227E-02       7    6    1         0.1739123556E+00      0.1739915275E+00
          0                52           2             7    6     1       0.3138315428E-02       7    6    1         0.1742280744E+00      0.1743073654E+00
          0                53           2             7    6     1       0.3143969591E-02       7    6    1         0.1745403995E+00      0.1746197986E+00
          0                54           2             7    6     1       0.3149491253E-02       7    6    1         0.1748453624E+00      0.1749248875E+00
          0                55           2             7    6     1       0.3154920510E-02       7    6    1         0.1751451904E+00      0.1752248086E+00
          0                56           2             7    6     1       0.3160254139E-02       7    6    1         0.1754397043E+00      0.1755194427E+00
          0                57           2             7    6     1       0.3165492398E-02       7    6    1         0.1757289187E+00      0.1758087702E+00
          0                58           2             7    6     1       0.3170600914E-02       7    6    1         0.1760109251E+00      0.1760908574E+00
          0                59           2             7    6     1       0.3175616807E-02       7    6    1         0.1762877850E+00      0.1763678148E+00
          0                60           2             7    6     1       0.3180502734E-02       7    6    1         0.1765574249E+00      0.1766375747E+00
                                                   Max.-Head-Change                         Max.-Flux-Residual
  Residual-Control   Outer-Iter.   Inner-Iter.     Column Row Layer    Maximum-Head-Change  Column Row Layer    Maximum-Flux-Residual          L2-NORM 
          0                61           2             7    6     1       0.3185296057E-02       7    6    1         0.1768219198E+00      0.1769021517E+00
          0                62           2             7    6     1       0.3189959413E-02       7    6    1         0.1770791949E+00      0.1771595181E+00
          0                63           2             7    6     1       0.3194461456E-02       7    6    1         0.1773275106E+00      0.1774079184E+00
          0                64           2             7    6     1       0.3198873420E-02       7    6    1         0.1775708221E+00      0.1776513016E+00
          0                65           2             7    6     1       0.3203120858E-02       7    6    1         0.1778049958E+00      0.1778855602E+00
          0                66           2             7    6     1       0.3207244121E-02       7    6    1         0.1780322729E+00      0.1781129149E+00
          0                67           2             7    6     1       0.3211239959E-02       7    6    1         0.1782524726E+00      0.1783331868E+00
          0                68           2             7    6     1       0.3215074278E-02       7    6    1         0.1784637025E+00      0.1785444949E+00
          0                69           2             7    6     1       0.3218784182E-02       7    6    1         0.1786680229E+00      0.1787488588E+00
          0                70           2             7    6     1       0.3222297968E-02       7    6    1         0.1788614530E+00      0.1789423616E+00
                                                   Max.-Head-Change                         Max.-Flux-Residual
  Residual-Control   Outer-Iter.   Inner-Iter.     Column Row Layer    Maximum-Head-Change  Column Row Layer    Maximum-Flux-Residual          L2-NORM 
          0                71           2             7    6     1       0.3225655771E-02       7    6    1         0.1790462218E+00      0.1791271866E+00
          0                72           2             7    6     1       0.3228888713E-02       7    6    1         0.1792240571E+00      0.1793050722E+00
          0                73           2             7    6     1       0.3231925570E-02       7    6    1         0.1793910047E+00      0.1794720704E+00
          0                74           2             7    6     1       0.3234806444E-02       7    6    1         0.1795492918E+00      0.1796303716E+00
          0                75           2             7    6     1       0.3237493742E-02       7    6    1         0.1796968313E+00      0.1797779701E+00
          0                76           2             7    6     1       0.3239990497E-02       7    6    1         0.1798337922E+00      0.1799149642E+00
          0                77           2             7    6     1       0.3242296462E-02       7    6    1         0.1799601610E+00      0.1800413459E+00
          0                78           2             7    6     1       0.3244411659E-02       7    6    1         0.1800759394E+00      0.1801571621E+00
          0                79           2             7    6     1       0.3246336085E-02       7    6    1         0.1801811273E+00      0.1802623459E+00
          0                80           2             7    6     1       0.3248069742E-02       7    6    1         0.1802757252E+00      0.1803569833E+00
                                                   Max.-Head-Change                         Max.-Flux-Residual
  Residual-Control   Outer-Iter.   Inner-Iter.     Column Row Layer    Maximum-Head-Change  Column Row Layer    Maximum-Flux-Residual          L2-NORM 
          0                81           2             7    6     1       0.3249543909E-02       7    6    1         0.1803559186E+00      0.1804371576E+00
          0                82           2             7    6     1       0.3256257961E-02       7    6    1         0.1804347551E+00      0.1805159767E+00
          0                83           2             7    6     1       0.3257133946E-02       7    6    1         0.1804824797E+00      0.1805633998E+00
          0                84           2             7    6     1       0.3257780804E-02       7    6    1         0.1805168687E+00      0.1805977401E+00
          0                85           2             7    6     1       0.3450972904E-02       7    6    1         0.1912219721E+00      0.1912982810E+00
          0                86           2             7    6     1       0.4130676547E-02       7    6    1         0.2288875491E+00      0.2289516550E+00
          0                87           2             7    6     1       0.4250783874E-02       7    6    1         0.2355363066E+00      0.2356000806E+00
          0                88           2             7    6     1       0.3301530839E-02       7    6    1         0.1829263064E+00      0.1830091171E+00
          0                89           2             7    6     1       0.5834796270E-03       7    6    1         0.3230295106E-01      0.3275457613E-01
          0                90           1             7    6     1       0.1032323223E-03       7    6    1         0.5710659006E-02      0.7761424076E-02
                                                   Max.-Head-Change                         Max.-Flux-Residual
  Residual-Control   Outer-Iter.   Inner-Iter.     Column Row Layer    Maximum-Head-Change  Column Row Layer    Maximum-Flux-Residual          L2-NORM 
          0                91           1             2   13     1      -0.7884844632E-04       2   13    1        -0.4549470449E-02      0.5334174714E-02
          0                92           1             2   13     1      -0.7883338812E-04       2   13    1        -0.4548426084E-02      0.5238839898E-02
          0                93           1             2   13     1      -0.7882190170E-04       2   13    1        -0.4547593840E-02      0.5234976006E-02
          0                94           1             2   13     1      -0.7877739163E-04       2   13    1        -0.4544848787E-02      0.5232444476E-02
          0                95           1             2   13     1      -0.7872345766E-04       2   13    1        -0.4541565075E-02      0.5229061429E-02
          0                96           1             2   13     1      -0.7869990452E-04       2   13    1        -0.4540528988E-02      0.5228200657E-02
          0                97           1             2   13     1      -0.7859992100E-04       2   13    1        -0.4533574104E-02      0.5220935010E-02
          0                98           1             2   13     1      -0.7857961538E-04       2   13    1        -0.4532766092E-02      0.5219985007E-02
          0                99           1             2   13     1      -0.7850194769E-04       2   13    1        -0.4528090441E-02      0.5215113485E-02
          0               100           1             2   13     1      -0.7842851686E-04       2   13    1        -0.4523685429E-02      0.5210389456E-02
                                                   Max.-Head-Change                         Max.-Flux-Residual
  Residual-Control   Outer-Iter.   Inner-Iter.     Column Row Layer    Maximum-Head-Change  Column Row Layer    Maximum-Flux-Residual          L2-NORM 
          0               101           1             2   13     1      -0.7836061513E-04       2   13    1        -0.4519599417E-02      0.5205887364E-02
          0               102           1             2   13     1      -0.7827564703E-04       2   13    1        -0.4514525000E-02      0.5200971965E-02
          0               103           1             2   13     1      -0.7820153986E-04       2   13    1        -0.4510077114E-02      0.5195743436E-02
          0               104           1             2   13     1      -0.7809103751E-04       2   13    1        -0.4503529989E-02      0.5189315086E-02
          0               105           1             2   13     1      -0.7802915005E-04       2   13    1        -0.4499795822E-02      0.5184962561E-02
          0               106           1             2   13     1      -0.7792608220E-04       2   13    1        -0.4493684545E-02      0.5178192984E-02
          0               107           1             2   13     1      -0.7781468297E-04       2   13    1        -0.4487087951E-02      0.5171544122E-02
          0               108           1             2   13     1      -0.1811517320E-04       2   13    1        -0.1044517684E-02      0.1242123620E-02
          0               109           1             2   13     1       0.1456437904E-05       2   13    1         0.8478231393E-04      0.1152183813E-03

    ------------------------------------------------
       NWT REQUIRED          109 OUTER ITERATIONS 
       AND A TOTAL OF        198 INNER ITERATIONS.
    ------------------------------------------------

 NO OUTPUT CONTROL FOR STRESS PERIOD    8   TIME STEP    9
 
 SOLVING FOR HEAD 
                                                   Max.-Head-Change                         Max.-Flux-Residual
  Residual-Control   Outer-Iter.   Inner-Iter.     Column Row Layer    Maximum-Head-Change  Column Row Layer    Maximum-Flux-Residual          L2-NORM 
          0                 1           2             3   13     1      -0.2325929474E-01       3   13    1        -0.1239658864E+01      0.2719194892E+01
          0                 2           2             7    6     1      -0.2885226420E+00       7    6    1        -0.1585886955E+02      0.1586700647E+02
          0                 3           2             7    6     1       0.2342583085E-01       7    6    1         0.1303577492E+01      0.1318658305E+01
          0                 4           2             8    3     1       0.5838708473E-03       7    6    1        -0.3225070083E-01      0.8234683857E-01
          0                 5           2             7    6     1       0.1319867160E-02       7    6    1         0.7470418467E-01      0.8193752814E-01
          0                 6           2             7    6     1       0.1205168936E-02       7    6    1         0.6817479001E-01      0.6983858724E-01
          0                 7           2             7    6     1       0.1216882898E-02       7    6    1         0.6883085310E-01      0.6918923408E-01
          0                 8           2             7    6     1       0.1220785888E-02       7    6    1         0.6904992686E-01      0.6914656693E-01
          0                 9           2             7    6     1       0.1225173318E-02       7    6    1         0.6929728720E-01      0.6934154553E-01
          0                10           2             7    6     1       0.1229477163E-02       7    6    1         0.6954004996E-01      0.6957391235E-01
                                                   Max.-Head-Change                         Max.-Flux-Residual
  Residual-Control   Outer-Iter.   Inner-Iter.     Column Row Layer    Maximum-Head-Change  Column Row Layer    Maximum-Flux-Residual          L2-NORM 
          0                11           2             7    6     1       0.1233836158E-02       7    6    1         0.6978594492E-01      0.6981780797E-01
          0                12           2             7    6     1       0.1238158082E-02       7    6    1         0.7002973740E-01      0.7006127776E-01
          0                13           2             7    6     1       0.1242482278E-02       7    6    1         0.7027365249E-01      0.7030521716E-01
          0                14           2             7    6     1       0.1246823214E-02       7    6    1         0.7051850897E-01      0.7055016328E-01
          0                15           2             7    6     1       0.1251146287E-02       7    6    1         0.7076234982E-01      0.7079410964E-01
          0                16           2             7    6     1       0.1255453586E-02       7    6    1         0.7100529371E-01      0.7103714839E-01
          0                17           2             7    6     1       0.1259778701E-02       7    6    1         0.7124924088E-01      0.7128121303E-01
          0                18           2             7    6     1       0.1264085878E-02       7    6    1         0.7149216858E-01      0.7152423856E-01
          0                19           2             7    6     1       0.1268394142E-02       7    6    1         0.7173515330E-01      0.7176733639E-01
          0                20           2             7    6     1       0.1272719199E-02       7    6    1         0.7197908340E-01      0.7201136366E-01
                                                   Max.-Head-Change                         Max.-Flux-Residual
  Residual-Control   Outer-Iter.   Inner-Iter.     Column Row Layer    Maximum-Head-Change  Column Row Layer    Maximum-Flux-Residual          L2-NORM 
          0                21           2             7    6     1       0.1277009519E-02       7    6    1         0.7222104384E-01      0.7225343421E-01
          0                22           2             7    6     1       0.1281301943E-02       7    6    1         0.7246311906E-01      0.7249560526E-01
          0                23           2             7    6     1       0.1285611099E-02       7    6    1         0.7270613614E-01      0.7273874113E-01
          0                24           2             7    6     1       0.1289868660E-02       7    6    1         0.7294623013E-01      0.7297892216E-01
          0                25           2             7    6     1       0.1294163069E-02       7    6    1         0.7318840426E-01      0.7322121772E-01
          0                26           2             7    6     1       0.1298438382E-02       7    6    1         0.7342949347E-01      0.7346239184E-01
          0                27           2             7    6     1       0.1302697992E-02       7    6    1         0.7366969011E-01      0.7370271395E-01
          0                28           2             7    6     1       0.1306975415E-02       7    6    1         0.7391088988E-01      0.7394400548E-01
          0                29           2             7    6     1       0.1311201173E-02       7    6    1         0.7414916280E-01      0.7418238246E-01
          0                30           2             7    6     1       0.1315463788E-02       7    6    1         0.7438951628E-01      0.7442284177E-01
                                                   Max.-Head-Change                         Max.-Flux-Residual
  Residual-Control   Outer-Iter.   Inner-Iter.     Column Row Layer    Maximum-Head-Change  Column Row Layer    Maximum-Flux-Residual          L2-NORM 
          0                31           2             7    6     1       0.1319707304E-02       7    6    1         0.7462878475E-01      0.7466219616E-01
          0                32           2             7    6     1       0.1323918256E-02       7    6    1         0.7486620711E-01      0.7489972896E-01
          0                33           2             7    6     1       0.1328131087E-02       7    6    1         0.7510373558E-01      0.7513737515E-01
          0                34           2             7    6     1       0.1332343746E-02       7    6    1         0.7534125224E-01      0.7537498980E-01
          0                35           2             7    6     1       0.1336539586E-02       7    6    1         0.7557781321E-01      0.7561163843E-01
          0                36           2             7    6     1       0.1340736445E-02       7    6    1         0.7581442760E-01      0.7584835947E-01
          0                37           2             7    6     1       0.1344899514E-02       7    6    1         0.7604912664E-01      0.7608317857E-01
          0                38           2             7    6     1       0.1349081498E-02       7    6    1         0.7628489131E-01      0.7631900924E-01
          0                39           2             7    6     1       0.1353228604E-02       7    6    1         0.7651867899E-01      0.7655291599E-01
          0                40           2             7    6     1       0.1357360966E-02       7    6    1         0.7675162874E-01      0.7678596790E-01
                                                   Max.-Head-Change                         Max.-Flux-Residual
  Residual-Control   Outer-Iter.   Inner-Iter.     Column Row Layer    Maximum-Head-Change  Column Row Layer    Maximum-Flux-Residual          L2-NORM 
          0                41           2             7    6     1       0.1361494222E-02       7    6    1         0.7698462487E-01      0.7701904653E-01
          0                42           2             7    6     1       0.1365610558E-02       7    6    1         0.7721665984E-01      0.7725120841E-01
          0                43           2             7    6     1       0.1369727920E-02       7    6    1         0.7744874872E-01      0.7748337970E-01
          0                44           2             7    6     1       0.1373794628E-02       7    6    1         0.7767796867E-01      0.7771269964E-01
          0                45           2             7    6     1       0.1377881278E-02       7    6    1         0.7790831258E-01      0.7794312675E-01
          0                46           2             7    6     1       0.1381932985E-02       7    6    1         0.7813667599E-01      0.7817159785E-01
          0                47           2             7    6     1       0.1385986816E-02       7    6    1         0.7836515561E-01      0.7840018770E-01
          0                48           2             7    6     1       0.1390006787E-02       7    6    1         0.7859171620E-01      0.7862683204E-01
          0                49           2             7    6     1       0.1394011952E-02       7    6    1         0.7881743564E-01      0.7885265963E-01
          0                50           2             7    6     1       0.1398018017E-02       7    6    1         0.7904320191E-01      0.7907851868E-01
                                                   Max.-Head-Change                         Max.-Flux-Residual
  Residual-Control   Outer-Iter.   Inner-Iter.     Column Row Layer    Maximum-Head-Change  Column Row Layer    Maximum-Flux-Residual          L2-NORM 
          0                51           2             7    6     1       0.1401990295E-02       7    6    1         0.7926705341E-01      0.7930245048E-01
          0                52           2             7    6     1       0.1405947764E-02       7    6    1         0.7949006364E-01      0.7952555462E-01
          0                53           2             7    6     1       0.1409889267E-02       7    6    1         0.7971216704E-01      0.7974777311E-01
          0                54           2             7    6     1       0.1413814875E-02       7    6    1         0.7993336769E-01      0.7996904523E-01
          0                55           2             7    6     1       0.1417724585E-02       7    6    1         0.8015366539E-01      0.8018944140E-01
          0                56           2             7    6     1       0.1421601529E-02       7    6    1         0.8037210643E-01      0.8040798341E-01
          0                57           2             7    6     1       0.1425463602E-02       7    6    1         0.8058970284E-01      0.8062567444E-01
          0                58           2             7    6     1       0.1429292848E-02       7    6    1         0.8080543915E-01      0.8084148131E-01
          0                59           2             7    6     1       0.1433124093E-02       7    6    1         0.8102128478E-01      0.8105744029E-01
          0                60           2             7    6     1       0.1436921480E-02       7    6    1         0.8123521202E-01      0.8127143757E-01
                                                   Max.-Head-Change                         Max.-Flux-Residual
  Residual-Control   Outer-Iter.   Inner-Iter.     Column Row Layer    Maximum-Head-Change  Column Row Layer    Maximum-Flux-Residual          L2-NORM 
          0                61           2             7    6     1       0.1440687199E-02       7    6    1         0.8144734492E-01      0.8148367537E-01
          0                62           2             7    6     1       0.1444437979E-02       7    6    1         0.8165862954E-01      0.8169504285E-01
          0                63           2             7    6     1       0.1448172801E-02       7    6    1         0.8186900813E-01      0.8190550865E-01
          0                64           2             7    6     1       0.1451857995E-02       7    6    1         0.8207657689E-01      0.8211316362E-01
          0                65           2             7    6     1       0.1455546215E-02       7    6    1         0.8228431333E-01      0.8232099066E-01
          0                66           2             7    6     1       0.1459183645E-02       7    6    1         0.8248917433E-01      0.8252592014E-01
          0                67           2             7    6     1       0.1462807307E-02       7    6    1         0.8269325345E-01      0.8273011975E-01
          0                68           2             7    6     1       0.1466414939E-02       7    6    1         0.8289642265E-01      0.8293334141E-01
          0                69           2             7    6     1       0.1469972945E-02       7    6    1         0.8309678246E-01      0.8313380716E-01
          0                70           2             7    6     1       0.1473517112E-02       7    6    1         0.8329635651E-01      0.8333345136E-01
                                                   Max.-Head-Change                         Max.-Flux-Residual
  Residual-Control   Outer-Iter.   Inner-Iter.     Column Row Layer    Maximum-Head-Change  Column Row Layer    Maximum-Flux-Residual          L2-NORM 
          0                71           2             7    6     1       0.1477028385E-02       7    6    1         0.8349406732E-01      0.8353120297E-01
          0                72           2             7    6     1       0.1480507929E-02       7    6    1         0.8368998091E-01      0.8372730118E-01
          0                73           2             7    6     1       0.1483955673E-02       7    6    1         0.8388409327E-01      0.8392140710E-01
          0                74           2             7    6     1       0.1487371621E-02       7    6    1         0.8407640471E-01      0.8411382985E-01
          0                75           2             7    6     1       0.1490755773E-02       7    6    1         0.8426691528E-01      0.8430441572E-01
          0                76           2             7    6     1       0.1494108128E-02       7    6    1         0.8445562499E-01      0.8449320343E-01
          0                77           2             7    6     1       0.1497428687E-02       7    6    1         0.8464253393E-01      0.8468019645E-01
          0                78           2             7    6     1       0.1500717449E-02       7    6    1         0.8482764215E-01      0.8486536369E-01
          0                79           2             7    6     1       0.1503974416E-02       7    6    1         0.8501094968E-01      0.8504874697E-01
          0                80           2             7    6     1       0.1507182717E-02       7    6    1         0.8519150288E-01      0.8522938506E-01
                                                   Max.-Head-Change                         Max.-Flux-Residual
  Residual-Control   Outer-Iter.   Inner-Iter.     Column Row Layer    Maximum-Head-Change  Column Row Layer    Maximum-Flux-Residual          L2-NORM 
          0                81           2             7    6     1       0.1510360253E-02       7    6    1         0.8537031401E-01      0.8540826718E-01
          0                82           2             7    6     1       0.1513505930E-02       7    6    1         0.8554732106E-01      0.8558533872E-01
          0                83           2             7    6     1       0.1516602945E-02       7    6    1         0.8572157419E-01      0.8575967872E-01
          0                84           2             7    6     1       0.1519686066E-02       7    6    1         0.8589503909E-01      0.8593320785E-01
          0                85           2             7    6     1       0.1522702553E-02       7    6    1         0.8606473415E-01      0.8610296795E-01
          0                86           2             7    6     1       0.1525689378E-02       7    6    1         0.8623274983E-01      0.8627104796E-01
          0                87           2             7    6     1       0.1528644275E-02       7    6    1         0.8639895786E-01      0.8643732910E-01
          0                88           2             7    6     1       0.1531550514E-02       7    6    1         0.8656241250E-01      0.8660084327E-01
          0                89           2             7    6     1       0.1534409118E-02       7    6    1         0.8672317185E-01      0.8676167268E-01
          0                90           2             7    6     1       0.1537236897E-02       7    6    1         0.8688218616E-01      0.8692074452E-01
                                                   Max.-Head-Change                         Max.-Flux-Residual
  Residual-Control   Outer-Iter.   Inner-Iter.     Column Row Layer    Maximum-Head-Change  Column Row Layer    Maximum-Flux-Residual          L2-NORM 
          0                91           2             7    6     1       0.1539999076E-02       7    6    1         0.8703748976E-01      0.8707608631E-01
          0                92           2             7    6     1       0.1542748404E-02       7    6    1         0.8719206451E-01      0.8723078994E-01
          0                93           2             7    6     1       0.1545431029E-02       7    6    1         0.8734286620E-01      0.8738160763E-01
          0                94           2             7    6     1       0.1548067128E-02       7    6    1         0.8749103573E-01      0.8752985135E-01
          0                95           2             7    6     1       0.1550655461E-02       7    6    1         0.8763650300E-01      0.8767535239E-01
          0                96           2             7    6     1       0.1553196104E-02       7    6    1         0.8777927240E-01      0.8781820689E-01
          0                97           2             7    6     1       0.1555705927E-02       7    6    1         0.8792029748E-01      0.8795927991E-01
          0                98           2             7    6     1       0.1558133276E-02       7    6    1         0.8805665858E-01      0.8809567356E-01
          0                99           2             7    6     1       0.1560548811E-02       7    6    1         0.8819235008E-01      0.8823142968E-01
          0               100           2             7    6     1       0.1562897577E-02       7    6    1         0.8832426536E-01      0.8836340219E-01
                                                   Max.-Head-Change                         Max.-Flux-Residual
  Residual-Control   Outer-Iter.   Inner-Iter.     Column Row Layer    Maximum-Head-Change  Column Row Layer    Maximum-Flux-Residual          L2-NORM 
          0               101           2             7    6     1       0.1565182949E-02       7    6    1         0.8845259557E-01      0.8849178131E-01
          0               102           2             7    6     1       0.1567404719E-02       7    6    1         0.8857732912E-01      0.8861654765E-01
          0               103           2             7    6     1       0.1569596644E-02       7    6    1         0.8870037410E-01      0.8873964711E-01
          0               104           2             7    6     1       0.1571722906E-02       7    6    1         0.8881970584E-01      0.8885902393E-01
          0               105           2             7    6     1       0.1573819452E-02       7    6    1         0.8893735641E-01      0.8897672075E-01
          0               106           2             7    6     1       0.1575816579E-02       7    6    1         0.8904938606E-01      0.8908880758E-01
          0               107           2             7    6     1       0.1577786066E-02       7    6    1         0.8915985224E-01      0.8919929947E-01
          0               108           2             7    6     1       0.1579689751E-02       7    6    1         0.8926659777E-01      0.8930608365E-01
          0               109           2             7    6     1       0.1581529984E-02       7    6    1         0.8936975564E-01      0.8940929015E-01
          0               110           2             7    6     1       0.1583306616E-02       7    6    1         0.8946931774E-01      0.8950887474E-01
                                                   Max.-Head-Change                         Max.-Flux-Residual
  Residual-Control   Outer-Iter.   Inner-Iter.     Column Row Layer    Maximum-Head-Change  Column Row Layer    Maximum-Flux-Residual          L2-NORM 
          0               111           2             7    6     1       0.1585053407E-02       7    6    1         0.8956719205E-01      0.8960679759E-01
          0               112           2             7    6     1       0.1586700784E-02       7    6    1         0.8965944636E-01      0.8969904040E-01
          0               113           2             7    6     1       0.1587645544E-02       7    6    1         0.8971199087E-01      0.8975155928E-01
          0               114           2             7    6     1       0.1587587289E-02       7    6    1         0.8970785445E-01      0.8974743094E-01
          0               115           2             7    6     1       0.1587590713E-02       7    6    1         0.8970721265E-01      0.8974678009E-01
          0               116           2             7    6     1       0.1587590302E-02       7    6    1         0.8970635518E-01      0.8974593504E-01
          0               117           2             7    6     1       0.1587590122E-02       7    6    1         0.8970551101E-01      0.8974504115E-01
          0               118           2             7    6     1       0.1587589927E-02       7    6    1         0.8970466603E-01      0.8974423550E-01
          0               119           2             7    6     1       0.1587589732E-02       7    6    1         0.8970382111E-01      0.8974337121E-01
          0               120           2             7    6     1       0.1587589537E-02       7    6    1         0.8970297622E-01      0.8974250876E-01
                                                   Max.-Head-Change                         Max.-Flux-Residual
  Residual-Control   Outer-Iter.   Inner-Iter.     Column Row Layer    Maximum-Head-Change  Column Row Layer    Maximum-Flux-Residual          L2-NORM 
          0               121           2             7    6     1       0.1587589343E-02       7    6    1         0.8970213136E-01      0.8974166167E-01
          0               122           2             7    6     1       0.1587589148E-02       7    6    1         0.8970128645E-01      0.8974080973E-01
          0               123           2             7    6     1       0.1587588953E-02       7    6    1         0.8970044163E-01      0.8973998211E-01
          0               124           2             7    6     1       0.1587588759E-02       7    6    1         0.8969959681E-01      0.8973910307E-01
          0               125           2             7    6     1       0.1587588564E-02       7    6    1         0.8969875198E-01      0.8973826380E-01
          0               126           2             7    6     1       0.1587588370E-02       7    6    1         0.8969790718E-01      0.8973743225E-01
          0               127           2             7    6     1       0.1587588174E-02       7    6    1         0.8969706237E-01      0.8973655235E-01
          0               128           2             7    6     1       0.1587587980E-02       7    6    1         0.8969621763E-01      0.8973571569E-01
          0               129           2             7    6     1       0.1587587786E-02       7    6    1         0.8969537286E-01      0.8973487312E-01
          0               130           2             7    6     1       0.1587587591E-02       7    6    1         0.8969452812E-01      0.8973401074E-01
                                                   Max.-Head-Change                         Max.-Flux-Residual
  Residual-Control   Outer-Iter.   Inner-Iter.     Column Row Layer    Maximum-Head-Change  Column Row Layer    Maximum-Flux-Residual          L2-NORM 
          0               131           2             7    6     1       0.1587587396E-02       7    6    1         0.8969368340E-01      0.8973314314E-01
          0               132           2             7    6     1       0.1587587202E-02       7    6    1         0.8969283870E-01      0.8973233038E-01
          0               133           2             7    6     1       0.1587587007E-02       7    6    1         0.8969199399E-01      0.8973146788E-01
          0               134           2             7    6     1       0.1587586812E-02       7    6    1         0.8969114932E-01      0.8973061217E-01
          0               135           2             7    6     1       0.1587586617E-02       7    6    1         0.8969030466E-01      0.8972976613E-01
          0               136           2             7    6     1       0.1587586423E-02       7    6    1         0.8968946003E-01      0.8972892182E-01
          0               137           2             7    6     1       0.1587586228E-02       7    6    1         0.8968861541E-01      0.8972804999E-01
          0               138           2             7    6     1       0.1587586034E-02       7    6    1         0.8968777079E-01      0.8972721879E-01
          0               139           2             7    6     1       0.1587585838E-02       7    6    1         0.8968692618E-01      0.8972637621E-01
          0               140           2             7    6     1       0.1587585644E-02       7    6    1         0.8968608162E-01      0.8972550657E-01
                                                   Max.-Head-Change                         Max.-Flux-Residual
  Residual-Control   Outer-Iter.   Inner-Iter.     Column Row Layer    Maximum-Head-Change  Column Row Layer    Maximum-Flux-Residual          L2-NORM 
          0               141           2             7    6     1       0.1587585450E-02       7    6    1         0.8968523706E-01      0.8972468189E-01
          0               142           2             7    6     1       0.1587585255E-02       7    6    1         0.8968439252E-01      0.8972379701E-01
          0               143           2             7    6     1       0.1587585060E-02       7    6    1         0.8968354798E-01      0.8972296022E-01
          0               144           2             7    6     1       0.1587584865E-02       7    6    1         0.8968270347E-01      0.8972213270E-01
          0               145           2             7    6     1       0.1587584671E-02       7    6    1         0.8968185899E-01      0.8972126035E-01
          0               146           2             7    6     1       0.1587584476E-02       7    6    1         0.8968101448E-01      0.8972042494E-01
          0               147           2             7    6     1       0.1587584282E-02       7    6    1         0.8968017002E-01      0.8971958345E-01
          0               148           2             7    6     1       0.1587584087E-02       7    6    1         0.8967932555E-01      0.8971867461E-01
          0               149           2             7    6     1       0.1587583892E-02       7    6    1         0.8967848112E-01      0.8971788041E-01
          0               150           2             7    6     1       0.1587583697E-02       7    6    1         0.8967763671E-01      0.8971701805E-01
                                                   Max.-Head-Change                         Max.-Flux-Residual
  Residual-Control   Outer-Iter.   Inner-Iter.     Column Row Layer    Maximum-Head-Change  Column Row Layer    Maximum-Flux-Residual          L2-NORM 
          0               151           2             7    6     1       0.1587583503E-02       7    6    1         0.8967679231E-01      0.8971617504E-01
          0               152           2             7    6     1       0.1587583308E-02       7    6    1         0.8967594793E-01      0.8971530532E-01
          0               153           2             7    6     1       0.1587583114E-02       7    6    1         0.8967510355E-01      0.8971445811E-01
          0               154           2             7    6     1       0.1587582919E-02       7    6    1         0.8967425920E-01      0.8971362804E-01
          0               155           2             7    6     1       0.1587582725E-02       7    6    1         0.8967341486E-01      0.8971275462E-01
          0               156           2             7    6     1       0.1587582529E-02       7    6    1         0.8967257052E-01      0.8971192905E-01
          0               157           2             7    6     1       0.1587582335E-02       7    6    1         0.8967172622E-01      0.8971105686E-01
          0               158           2             7    6     1       0.1587582140E-02       7    6    1         0.8967088191E-01      0.8971023776E-01
          0               159           2             7    6     1       0.1587581946E-02       7    6    1         0.8967003766E-01      0.8970935358E-01
          0               160           2             7    6     1       0.1587581751E-02       7    6    1         0.8966919338E-01      0.8970852274E-01
                                                   Max.-Head-Change                         Max.-Flux-Residual
  Residual-Control   Outer-Iter.   Inner-Iter.     Column Row Layer    Maximum-Head-Change  Column Row Layer    Maximum-Flux-Residual          L2-NORM 
          0               161           2             7    6     1       0.1587581557E-02       7    6    1         0.8966834916E-01      0.8970767096E-01
          0               162           2             7    6     1       0.1587581362E-02       7    6    1         0.8966750491E-01      0.8970682121E-01
          0               163           2             7    6     1       0.1587581167E-02       7    6    1         0.8966666069E-01      0.8970598060E-01
          0               164           2             7    6     1       0.1587580972E-02       7    6    1         0.8966581650E-01      0.8970511655E-01
          0               165           2             7    6     1       0.1587580778E-02       7    6    1         0.8966497232E-01      0.8970427652E-01
          0               166           2             7    6     1       0.1587580583E-02       7    6    1         0.8966412815E-01      0.8970342442E-01
          0               167           2             7    6     1       0.1587580388E-02       7    6    1         0.8966328400E-01      0.8970255746E-01
          0               168           2             7    6     1       0.1590795117E-02       7    6    1         0.8969910776E-01      0.8973825506E-01
          0               169           2             7    6     1       0.1590101858E-02       7    6    1         0.8965921696E-01      0.8969834865E-01
          0               170           2             7    6     1       0.1590144388E-02       7    6    1         0.8966080164E-01      0.8969991023E-01
                                                   Max.-Head-Change                         Max.-Flux-Residual
  Residual-Control   Outer-Iter.   Inner-Iter.     Column Row Layer    Maximum-Head-Change  Column Row Layer    Maximum-Flux-Residual          L2-NORM 
          0               171           2             7    6     1       0.1590141322E-02       7    6    1         0.8965980622E-01      0.8969894278E-01
          0               172           2             7    6     1       0.1590141127E-02       7    6    1         0.8965897154E-01      0.8969808009E-01
          0               173           2             7    6     1       0.1590140759E-02       7    6    1         0.8965812691E-01      0.8969722734E-01
          0               174           2             7    6     1       0.1631947310E-02       7    6    1         0.9201485863E-01      0.9205297344E-01
          0               175           2             7    6     1       0.2000492700E-02       7    6    1         0.1127965386E+00      0.1128276878E+00
          0               176           2             7    6     1       0.2070846968E-02       7    6    1         0.1167601430E+00      0.1167909038E+00
          0               177           2             7    6     1       0.2084288514E-02       7    6    1         0.1175160653E+00      0.1175468983E+00
          0               178           2             7    6     1       0.2086858119E-02       7    6    1         0.1176596215E+00      0.1176905070E+00
          0               179           2             7    6     1       0.2087349184E-02       7    6    1         0.1176861726E+00      0.1177170424E+00
          0               180           2             7    6     1       0.2087442565E-02       7    6    1         0.1176903496E+00      0.1177212213E+00
                                                   Max.-Head-Change                         Max.-Flux-Residual
  Residual-Control   Outer-Iter.   Inner-Iter.     Column Row Layer    Maximum-Head-Change  Column Row Layer    Maximum-Flux-Residual          L2-NORM 
          0               181           2             7    6     1       0.1918976545E-02       7    6    1         0.1081897417E+00      0.1082236811E+00
          0               182           2             7    6     1       0.3663007078E-03       7    6    1         0.2063784301E-01      0.2080931008E-01
          0               183           1             7    6     1       0.6998038099E-04       7    6    1         0.3940341610E-02      0.4715163573E-02
          0               184           1             2   13     1      -0.3885162641E-04       2   13    1        -0.2239894247E-02      0.2685734492E-02
          0               185           1             2   13     1      -0.3884145080E-04       2   13    1        -0.2239248207E-02      0.2580825358E-02
          0               186           1             2   13     1      -0.3885274056E-04       2   13    1        -0.2239861620E-02      0.2577350258E-02
          0               187           1             2   13     1      -0.3881180150E-04       2   13    1        -0.2237429204E-02      0.2575272922E-02
          0               188           1             2   13     1      -0.3885570001E-04       2   13    1        -0.2239926302E-02      0.2577186831E-02
          0               189           1             2   13     1      -0.3882601256E-04       2   13    1        -0.2238153979E-02      0.2575913367E-02
          0               190           1             2   13     1      -0.3883217236E-04       2   13    1        -0.2238461298E-02      0.2576019556E-02
                                                   Max.-Head-Change                         Max.-Flux-Residual
  Residual-Control   Outer-Iter.   Inner-Iter.     Column Row Layer    Maximum-Head-Change  Column Row Layer    Maximum-Flux-Residual          L2-NORM 
          0               191           1             2   13     1      -0.3882104217E-04       2   13    1        -0.2237770335E-02      0.2575497874E-02
          0               192           1             2   13     1      -0.3882452562E-04       2   13    1        -0.2237907901E-02      0.2575827908E-02
          0               193           1             2   13     1      -0.3882209140E-04       2   13    1        -0.2237723281E-02      0.2575468287E-02
          0               194           1             2   13     1      -0.3879735585E-04       2   13    1        -0.2236241793E-02      0.2574181500E-02
          0               195           1             2   13     1      -0.3881890990E-04       2   13    1        -0.2237440238E-02      0.2575364919E-02
          0               196           1             2   13     1      -0.3880831833E-04       2   13    1        -0.2236770848E-02      0.2574811704E-02
          0               197           1             2   13     1      -0.3879962392E-04       2   13    1        -0.2236214823E-02      0.2574172109E-02
          0               198           1             2   13     1      -0.3881030886E-04       2   13    1        -0.2236800308E-02      0.2573985586E-02
          0               199           1             2   13     1      -0.3879681643E-04       2   13    1        -0.2235935111E-02      0.2574989379E-02
          0               200           1             2   13     1      -0.3879449923E-04       2   13    1        -0.2235767419E-02      0.2573970378E-02

    ------------------------------------------------
       NWT REQUIRED          200 OUTER ITERATIONS 
       AND A TOTAL OF        382 INNER ITERATIONS.
    ------------------------------------------------

 OUTPUT CONTROL FOR STRESS PERIOD    8   TIME STEP   10
    PRINT BUDGET
    SAVE BUDGET
 UBUDSV SAVING "         STORAGE" ON UNIT102 AT TIME STEP    10, STRESS PERIOD    8
 UBUDSV SAVING "   CONSTANT HEAD" ON UNIT102 AT TIME STEP    10, STRESS PERIOD    8
 UBUDSV SAVING "FLOW RIGHT FACE " ON UNIT102 AT TIME STEP    10, STRESS PERIOD    8
 UBUDSV SAVING "FLOW FRONT FACE " ON UNIT102 AT TIME STEP    10, STRESS PERIOD    8

  HEAD DEP BOUNDS   PERIOD    8   STEP    10
 BOUNDARY      1   LAYER   1   ROW    13   COL     1   RATE   -0.278733    
 BOUNDARY      2   LAYER   1   ROW    14   COL     9   RATE     1.04109    



 STREAM LISTING     PERIOD      8   STEP       10

 LAYER ROW COL. STREAM  RCH.  FLOW INTO     FLOW TO   FLOW OUT OF   OVRLND.     DIRECT     STREAM       STREAM     STREAM     STREAM   STREAMBED  STREAMBED
                SEG.NO.  NO.  STRM. RCH.    AQUIFER    STRM. RCH.    RUNOFF     PRECIP       ET          HEAD       DEPTH      WIDTH   CONDCTNC.   GRADIENT

   1    1    1     1     1    3.5000E+01  2.8629E-11   3.5000E+01  0.000E+00  0.000E+00  0.000E+00  1.09434E+03  1.292E+00  1.482E+01  6.670E-12  1.431E+00
   1    2    2     1     2    3.5000E+01  4.4488E-11   3.5000E+01  0.000E+00  0.000E+00  0.000E+00  1.08935E+03  1.292E+00  1.481E+01  1.037E-11  1.431E+00
   1    3    3     1     3    3.5000E+01  3.8148E-11   3.5000E+01  0.000E+00  0.000E+00  0.000E+00  1.08371E+03  1.292E+00  1.481E+01  8.888E-12  1.431E+00
   1    3    4     1     4    3.5000E+01  3.5294E-11   3.5000E+01  0.000E+00  0.000E+00  0.000E+00  1.07870E+03  1.292E+00  1.482E+01  8.223E-12  1.431E+00
   1    4    5     2     1    3.3000E+01  3.4491E-01   3.2655E+01  0.000E+00  0.000E+00  0.000E+00  1.07336E+03  1.422E+00  1.200E+01  7.800E-02  1.474E+00
   1    5    6     2     2    3.2655E+01  2.6484E-01   3.2390E+01  0.000E+00  0.000E+00  0.000E+00  1.06792E+03  1.414E+00  1.200E+01  6.000E-02  1.471E+00
   1    6    6     2     3    3.2390E+01  2.6443E-01   3.2126E+01  0.000E+00  0.000E+00  0.000E+00  1.06320E+03  1.407E+00  1.200E+01  6.000E-02  1.469E+00
   1    7    6     2     4    3.2126E+01  2.6401E-01   3.1862E+01  0.000E+00  0.000E+00  0.000E+00  1.05848E+03  1.400E+00  1.200E+01  6.000E-02  1.467E+00
   1    8    6     2     5    3.1862E+01  2.6359E-01   3.1598E+01  0.000E+00  0.000E+00  0.000E+00  1.05375E+03  1.393E+00  1.200E+01  6.000E-02  1.464E+00
   1    3    5     3     1    2.0000E+00  2.8252E-01   1.7175E+00  0.000E+00  0.000E+00  0.000E+00  1.07555E+03  1.909E+00  9.636E+00  7.227E-02  1.955E+00
   1    3    6     3     2    1.7175E+00  2.4905E-01   1.4684E+00  0.000E+00  0.000E+00  0.000E+00  1.07264E+03  1.727E+00  8.909E+00  6.682E-02  1.864E+00
   1    3    7     3     3    1.4684E+00  1.9718E-01   1.2712E+00  0.000E+00  0.000E+00  0.000E+00  1.06987E+03  1.555E+00  8.218E+00  5.547E-02  1.777E+00
   1    4    8     3     4    1.2712E+00  2.2567E-01   1.0456E+00  0.000E+00  0.000E+00  0.000E+00  1.06682E+03  1.364E+00  7.455E+00  6.709E-02  1.682E+00
   1    5    8     3     5    1.0456E+00  1.5790E-01   8.8768E-01  0.000E+00  0.000E+00  0.000E+00  1.06362E+03  1.164E+00  6.655E+00  4.991E-02  1.582E+00
   1    6    8     3     6    8.8768E-01  5.5980E-02   8.3170E-01  0.000E+00  0.000E+00  0.000E+00  1.06158E+03  1.036E+00  6.145E+00  1.844E-02  1.518E+00
   1    5   10     4     1    1.0000E+01  9.0919E-02   9.9091E+00  0.000E+00  0.000E+00  0.000E+00  1.07836E+03  6.368E-01  1.000E+01  2.500E-02  1.212E+00
   1    5    9     4     2    9.9091E+00  1.8158E-01   9.7275E+00  0.000E+00  0.000E+00  0.000E+00  1.07154E+03  6.315E-01  1.000E+01  5.000E-02  1.211E+00
   1    6    8     4     3    9.7275E+00  1.2689E-01   9.6006E+00  0.000E+00  0.000E+00  0.000E+00  1.06381E+03  6.256E-01  1.000E+01  3.500E-02  1.209E+00
   1    6    8     5     1    1.0432E+01  2.2686E-09   1.0432E+01  0.000E+00  0.000E+00  0.000E+00  1.05868E+03  6.790E-01  1.542E+01  6.166E-10  1.226E+00
   1    7    7     5     2    1.0432E+01  2.8306E-09   1.0432E+01  0.000E+00  0.000E+00  0.000E+00  1.05418E+03  6.784E-01  1.539E+01  7.695E-10  1.226E+00
   1    8    7     5     3    1.0432E+01  1.9868E-09   1.0432E+01  0.000E+00  0.000E+00  0.000E+00  1.04993E+03  6.794E-01  1.543E+01  5.400E-10  1.226E+00
   1    8    6     5     4    1.0432E+01  1.4217E-09   1.0432E+01  0.000E+00  0.000E+00  0.000E+00  1.04693E+03  6.800E-01  1.545E+01  3.863E-10  1.227E+00
   1    9    6     6     1    2.4116E+01  2.5147E-01   2.3865E+01  0.000E+00  0.000E+00  0.000E+00  1.04392E+03  1.191E+00  1.200E+01  6.000E-02  1.397E+00
   1   10    7     6     2    2.3865E+01  2.5102E-01   2.3614E+01  0.000E+00  0.000E+00  0.000E+00  1.03937E+03  1.184E+00  1.200E+01  6.000E-02  1.395E+00
   1   11    7     6     3    2.3614E+01  2.5057E-01   2.3363E+01  0.000E+00  0.000E+00  0.000E+00  1.03481E+03  1.176E+00  1.200E+01  6.000E-02  1.392E+00
   1   12    7     6     4    2.3363E+01  2.5012E-01   2.3113E+01  0.000E+00  0.000E+00  0.000E+00  1.03026E+03  1.169E+00  1.200E+01  6.000E-02  1.390E+00
   1   13    7     6     5    2.3113E+01  9.9921E-02   2.3013E+01  0.000E+00  0.000E+00  0.000E+00  1.02707E+03  1.163E+00  1.200E+01  2.400E-02  1.388E+00
   1   14    9     7     1    1.5000E+02  2.9539E-08   1.5000E+02  0.000E+00  0.000E+00  0.000E+00  1.03986E+03  2.283E+00  5.528E+01  5.591E-09  1.761E+00
   1   13    8     7     2    1.5000E+02  3.2486E-14   1.5000E+02  0.000E+00  0.000E+00  0.000E+00  1.03478E+03  2.283E+00  5.527E+01  6.150E-15  1.761E+00
   1   13    7     7     3    1.5000E+02  2.9539E-08   1.5000E+02  0.000E+00  0.000E+00  0.000E+00  1.02970E+03  2.283E+00  5.528E+01  5.591E-09  1.761E+00
   1   13    6     8     1    1.7301E+02  2.6222E-30   1.7301E+02  0.000E+00  0.000E+00  0.000E+00  1.02485E+03  2.972E+00  4.309E+01  4.391E-31  1.991E+00
   1   13    5     8     2    1.7301E+02  0.0000E+00   1.7301E+02  0.000E+00  0.000E+00  0.000E+00  1.01860E+03  2.972E+00  4.309E+01  0.000E+00  1.991E+00
   1   13    4     8     3    1.7301E+02  2.1360E-18   1.7301E+02  0.000E+00  0.000E+00  0.000E+00  1.01234E+03  2.965E+00  4.299E+01  4.381E-19  1.625E+00
   1   13    3     8     4    1.7301E+02  5.7012E-10   1.7301E+02  0.000E+00  0.000E+00  0.000E+00  1.00609E+03  2.970E+00  4.306E+01  4.388E-10  4.331E-01
   1   13    2     8     5    1.7301E+02 -1.0873E+00   1.7410E+02  0.000E+00  0.000E+00  0.000E+00  9.99850E+02  2.975E+00  4.314E+01  4.396E+00 -8.244E-02
   1   13    1     8     6    1.7410E+02 -1.2622E+00   1.7536E+02  0.000E+00  0.000E+00  0.000E+00  9.94858E+02  2.983E+00  4.325E+01  2.644E+00 -1.591E-01
   1    6    8     9     1    1.7914E+01  0.0000E+00   1.7914E+01  0.000E+00  0.000E+00  0.000E+00  1.07926E+03  7.646E-01  4.000E+00  0.000E+00  1.255E+00



 UBDSV3 SAVING "     NETRECHARGE" ON UNIT 100 AT TIME STEP    10, STRESS PERIOD   8
 UBDSV3 SAVING "    NETDISCHARGE" ON UNIT 101 AT TIME STEP    10, STRESS PERIOD   8
 UBDSV3 SAVING "           GW ET" ON UNIT  61 AT TIME STEP    10, STRESS PERIOD   8
 UBDSV3 SAVING "    UZF RECHARGE" ON UNIT  61 AT TIME STEP    10, STRESS PERIOD   8
 UBDSV3 SAVING " SURFACE LEAKAGE" ON UNIT  61 AT TIME STEP    10, STRESS PERIOD   8
 UBDSV3 SAVING "       HORT+DUNN" ON UNIT  61 AT TIME STEP    10, STRESS PERIOD   8
 UBDSV3 SAVING "  STORAGE CHANGE" ON UNIT  61 AT TIME STEP    10, STRESS PERIOD   8


UNSATURATED ZONE PACKAGE VOLUMETRIC BUDGET FOR  TIME STEP    10 STRESS PERIOD    8
  ------------------------------------------------------------------------------



     CUMULATIVE VOLUMES      L**3       RATES FOR THIS TIME STEP      L**3/T
     ------------------                 ------------------------

           IN:                                      IN:
           ---                                      ---
        INFILTRATION =    26396951.6721          INFILTRATION =          18.7618

          OUT:                                     OUT:
          ----                                     ----
              UZF ET =   509906598.3427                UZF ET =         142.1091
        UZF RECHARGE =   471284755.4302          UZF RECHARGE =          26.7662

            IN - OUT =  -954794402.1008              IN - OUT =        -150.1135

          STORAGE:                                 STORAGE:
          --------                                 --------
      STORAGE CHANGE =  -954790095.6619        STORAGE CHANGE =        -150.1144

 PERCENT DISCREPANCY IS DIFFERENCE BETWEEN IN-OUT MINUS CHANGE IN STORAGE
 DIVIDED BY THE AVERAGE OF IN AND OUT TIMES 100

 PERCENT DISCREPANCY =          -0.00     PERCENT DISCREPANCY =           0.00







         ****FAILED TO MEET SOLVER CONVERGENCE CRITERIA IN TIME STEP   10 OF STRESS PERIOD    8****
1
  VOLUMETRIC BUDGET FOR ENTIRE MODEL AT END OF TIME STEP   10, STRESS PERIOD   8
  ------------------------------------------------------------------------------

     CUMULATIVE VOLUMES      L**3       RATES FOR THIS TIME STEP      L**3/T
     ------------------                 ------------------------

           IN:                                      IN:
           ---                                      ---
             STORAGE =     7157107.0000               STORAGE =           3.9395
       CONSTANT HEAD =           0.0000         CONSTANT HEAD =           0.0000
               WELLS =           0.0000                 WELLS =           0.0000
     HEAD DEP BOUNDS =    20381822.0000       HEAD DEP BOUNDS =           1.0411
      STREAM LEAKAGE =    77119360.0000        STREAM LEAKAGE =           4.0726
        UZF RECHARGE =   471284704.0000          UZF RECHARGE =          26.7662
               GW ET =           0.0000                 GW ET =           0.0000
     SURFACE LEAKAGE =           0.0000       SURFACE LEAKAGE =           0.0000

            TOTAL IN =   575942976.0000              TOTAL IN =          35.8194

          OUT:                                     OUT:
          ----                                     ----
             STORAGE =   509470304.0000               STORAGE =          27.8695
       CONSTANT HEAD =           0.0000         CONSTANT HEAD =           0.0000
               WELLS =           0.0000                 WELLS =           0.0000
     HEAD DEP BOUNDS =     5564928.0000       HEAD DEP BOUNDS =           0.2787
      STREAM LEAKAGE =    49841964.0000        STREAM LEAKAGE =           2.3495
        UZF RECHARGE =           0.0000          UZF RECHARGE =           0.0000
               GW ET =    11028079.0000                 GW ET =           5.3216
     SURFACE LEAKAGE =           0.0000       SURFACE LEAKAGE =           0.0000

           TOTAL OUT =   575905280.0000             TOTAL OUT =          35.8193

            IN - OUT =       37696.0000              IN - OUT =       1.1826E-04

 PERCENT DISCREPANCY =           0.01     PERCENT DISCREPANCY =           0.00






         TIME SUMMARY AT END OF TIME STEP   10 IN STRESS PERIOD    8
                    SECONDS     MINUTES      HOURS       DAYS        YEARS
                    -----------------------------------------------------------
   TIME STEP LENGTH  87600.      1460.0      24.333      1.0139     2.77588E-03
 STRESS PERIOD TIME 8.76000E+05  14600.      243.33      10.139     2.77588E-02
         TOTAL TIME 1.92720E+07 3.21200E+05  5353.3      223.06     0.61069    
1
 
 SOLVING FOR HEAD 
                                                   Max.-Head-Change                         Max.-Flux-Residual
  Residual-Control   Outer-Iter.   Inner-Iter.     Column Row Layer    Maximum-Head-Change  Column Row Layer    Maximum-Flux-Residual          L2-NORM 
          0                 1           2             3   13     1      -0.2578112576E-01       3   13    1        -0.1373809917E+01      0.2795770807E+01
          0                 2           2             7    6     1      -0.2841651908E+00       7    6    1        -0.1561940584E+02      0.1562770991E+02
          0                 3           2             7    6     1       0.2776267454E-01       7    6    1         0.1544454226E+01      0.1557159926E+01
          0                 4           2             7    6     1       0.3796209299E-02       7    6    1         0.2110300366E+00      0.2242660852E+00
          0                 5           2             7    6     1       0.5721913201E-02       7    6    1         0.3178470187E+00      0.3197438510E+00
          0                 6           2             7    6     1       0.5568632292E-02       7    6    1         0.3092871143E+00      0.3097945823E+00
          0                 7           2             7    6     1       0.5581099712E-02       7    6    1         0.3099707948E+00      0.3101894942E+00
          0                 8           2             7    6     1       0.5580128687E-02       7    6    1         0.3099129116E+00      0.3100738216E+00
          0                 9           2             7    6     1       0.5580192788E-02       7    6    1         0.3099134948E+00      0.3100627262E+00
          0                10           2             7    6     1       0.5580184631E-02       7    6    1         0.3099102914E+00      0.3100571092E+00
                                                   Max.-Head-Change                         Max.-Flux-Residual
  Residual-Control   Outer-Iter.   Inner-Iter.     Column Row Layer    Maximum-Head-Change  Column Row Layer    Maximum-Flux-Residual          L2-NORM 
          0                11           2             7    6     1       0.5580199816E-02       7    6    1         0.3099084027E+00      0.3100547168E+00
          0                12           2             7    6     1       0.5580195942E-02       7    6    1         0.3099054551E+00      0.3100516036E+00
          0                13           2             7    6     1       0.5580176451E-02       7    6    1         0.3099016387E+00      0.3100477074E+00
          0                14           2             7    6     1       0.5580175399E-02       7    6    1         0.3098988457E+00      0.3100448633E+00
          0                15           2             7    6     1       0.5580172880E-02       7    6    1         0.3098959707E+00      0.3100419137E+00
          0                16           2             7    6     1       0.5580170482E-02       7    6    1         0.3098931023E+00      0.3100389715E+00
          0                17           2             7    6     1       0.5580168078E-02       7    6    1         0.3098902335E+00      0.3100360787E+00
          0                18           2             7    6     1       0.5580165674E-02       7    6    1         0.3098873648E+00      0.3100331187E+00
          0                19           2             7    6     1       0.5580163272E-02       7    6    1         0.3098844961E+00      0.3100301977E+00
          0                20           2             7    6     1       0.5580160869E-02       7    6    1         0.3098816274E+00      0.3100272530E+00
                                                   Max.-Head-Change                         Max.-Flux-Residual
  Residual-Control   Outer-Iter.   Inner-Iter.     Column Row Layer    Maximum-Head-Change  Column Row Layer    Maximum-Flux-Residual          L2-NORM 
          0                21           2             7    6     1       0.5580158466E-02       7    6    1         0.3098787589E+00      0.3100243533E+00
          0                22           2             7    6     1       0.5580156064E-02       7    6    1         0.3098758903E+00      0.3100214088E+00
          0                23           2             7    6     1       0.5580153661E-02       7    6    1         0.3098730219E+00      0.3100184665E+00
          0                24           2             7    6     1       0.5580151259E-02       7    6    1         0.3098701534E+00      0.3100155447E+00
          0                25           2             7    6     1       0.5580148856E-02       7    6    1         0.3098672851E+00      0.3100126092E+00
          0                26           2             7    6     1       0.5580146454E-02       7    6    1         0.3098644168E+00      0.3100096838E+00
          0                27           2             7    6     1       0.5580144051E-02       7    6    1         0.3098615485E+00      0.3100067437E+00
          0                28           2             7    6     1       0.5580141649E-02       7    6    1         0.3098586803E+00      0.3100038264E+00
          0                29           2             7    6     1       0.5580139247E-02       7    6    1         0.3098558121E+00      0.3100008744E+00
          0                30           2             7    6     1       0.5580136843E-02       7    6    1         0.3098529440E+00      0.3099979789E+00
                                                   Max.-Head-Change                         Max.-Flux-Residual
  Residual-Control   Outer-Iter.   Inner-Iter.     Column Row Layer    Maximum-Head-Change  Column Row Layer    Maximum-Flux-Residual          L2-NORM 
          0                31           2             7    6     1       0.5580134441E-02       7    6    1         0.3098500760E+00      0.3099950317E+00
          0                32           2             7    6     1       0.5580132038E-02       7    6    1         0.3098472080E+00      0.3099920924E+00
          0                33           2             7    6     1       0.5580129637E-02       7    6    1         0.3098443401E+00      0.3099891647E+00
          0                34           2             7    6     1       0.5580127234E-02       7    6    1         0.3098414722E+00      0.3099862406E+00
          0                35           2             7    6     1       0.5580124831E-02       7    6    1         0.3098386043E+00      0.3099833063E+00
          0                36           2             7    6     1       0.5580122429E-02       7    6    1         0.3098357366E+00      0.3099803676E+00
          0                37           2             7    6     1       0.5580120026E-02       7    6    1         0.3098328688E+00      0.3099774541E+00
          0                38           2             7    6     1       0.5580117624E-02       7    6    1         0.3098300011E+00      0.3099745122E+00
          0                39           2             7    6     1       0.5580115221E-02       7    6    1         0.3098271335E+00      0.3099715882E+00
          0                40           2             7    6     1       0.5580112819E-02       7    6    1         0.3098242660E+00      0.3099686553E+00
                                                   Max.-Head-Change                         Max.-Flux-Residual
  Residual-Control   Outer-Iter.   Inner-Iter.     Column Row Layer    Maximum-Head-Change  Column Row Layer    Maximum-Flux-Residual          L2-NORM 
          0                41           2             7    6     1       0.5580110417E-02       7    6    1         0.3098213984E+00      0.3099657160E+00
          0                42           2             7    6     1       0.5580108014E-02       7    6    1         0.3098185310E+00      0.3099628094E+00
          0                43           2             7    6     1       0.5580105611E-02       7    6    1         0.3098156635E+00      0.3099598659E+00
          0                44           2             7    6     1       0.5580103209E-02       7    6    1         0.3098127962E+00      0.3099569336E+00
          0                45           2             7    6     1       0.5580100806E-02       7    6    1         0.3098099289E+00      0.3099539746E+00
          0                46           2             7    6     1       0.5593007326E-02       7    6    1         0.3100242474E+00      0.3101673529E+00
          0                47           2             7    6     1       0.5588781318E-02       7    6    1         0.3097866436E+00      0.3099299764E+00
          0                48           2             7    6     1       0.6362513860E-02       7    6    1         0.3526788298E+00      0.3528046943E+00
          0                49           2             7    6     1       0.5935237571E-02       7    6    1         0.3289823996E+00      0.3291191354E+00
          0                50           2             7    6     1       0.1050635935E-02       7    6    1         0.5818933863E-01      0.5895312111E-01
                                                   Max.-Head-Change                         Max.-Flux-Residual
  Residual-Control   Outer-Iter.   Inner-Iter.     Column Row Layer    Maximum-Head-Change  Column Row Layer    Maximum-Flux-Residual          L2-NORM 
          0                51           2             7    6     1       0.1861848313E-03       7    6    1         0.1030363043E-01      0.1379854898E-01
          0                52           1             2   13     1      -0.1377016926E-03       2   13    1        -0.7947296163E-02      0.9326211889E-02
          0                53           1             2   13     1      -0.1376620049E-03       2   13    1        -0.7944539125E-02      0.9147297041E-02
          0                54           1             2   13     1      -0.1376001798E-03       2   13    1        -0.7940503102E-02      0.9138283598E-02
          0                55           1             2   13     1      -0.1375658669E-03       2   13    1        -0.7938055972E-02      0.9136481915E-02
          0                56           1             2   13     1      -0.1375388392E-03       2   13    1        -0.7936030728E-02      0.9135240700E-02
          0                57           1             2   13     1      -0.1375011506E-03       2   13    1        -0.7933393322E-02      0.9133114101E-02
          0                58           1             2   13     1      -0.1374455307E-03       2   13    1        -0.7929708977E-02      0.9130794097E-02
          0                59           1             2   13     1      -0.1374062688E-03       2   13    1        -0.7926982951E-02      0.9128394191E-02
          0                60           1             2   13     1      -0.9960993815E-04       2   13    1        -0.5746208212E-02      0.6636380930E-02
          0                61           1             2   13     1       0.7869654616E-05       2   13    1         0.4582288129E-03      0.5600725156E-03

    ------------------------------------------------
       NWT REQUIRED           61 OUTER ITERATIONS 
       AND A TOTAL OF        112 INNER ITERATIONS.
    ------------------------------------------------

 NO OUTPUT CONTROL FOR STRESS PERIOD    8   TIME STEP   11
 
 SOLVING FOR HEAD 
                                                   Max.-Head-Change                         Max.-Flux-Residual
  Residual-Control   Outer-Iter.   Inner-Iter.     Column Row Layer    Maximum-Head-Change  Column Row Layer    Maximum-Flux-Residual          L2-NORM 
          0                 1           2             3   13     1      -0.2611714316E-01       3   13    1        -0.1391897348E+01      0.2764647078E+01
          0                 2           2             7    6     1      -0.2847136675E+00       7    6    1        -0.1564956375E+02      0.1565779687E+02
          0                 3           2             7    6     1       0.2727063097E-01       7    6    1         0.1517126014E+01      0.1530024088E+01
          0                 4           2             7    6     1       0.3293439690E-02       7    6    1         0.1831056170E+00      0.1981523757E+00
          0                 5           2             7    6     1       0.5220016506E-02       7    6    1         0.2899716944E+00      0.2920206198E+00
          0                 6           2             7    6     1       0.5066665037E-02       7    6    1         0.2814082215E+00      0.2819394292E+00
          0                 7           2             7    6     1       0.5079137700E-02       7    6    1         0.2820924667E+00      0.2823070661E+00
          0                 8           2             7    6     1       0.5078149081E-02       7    6    1         0.2820338634E+00      0.2821851277E+00
          0                 9           2             7    6     1       0.5078232292E-02       7    6    1         0.2820357395E+00      0.2821742004E+00
          0                10           2             7    6     1       0.5078241580E-02       7    6    1         0.2820337043E+00      0.2821696068E+00
                                                   Max.-Head-Change                         Max.-Flux-Residual
  Residual-Control   Outer-Iter.   Inner-Iter.     Column Row Layer    Maximum-Head-Change  Column Row Layer    Maximum-Flux-Residual          L2-NORM 
          0                11           2             7    6     1       0.5078238129E-02       7    6    1         0.2820310153E+00      0.2821663458E+00
          0                12           2             7    6     1       0.5078219024E-02       7    6    1         0.2820274569E+00      0.2821626051E+00
          0                13           2             7    6     1       0.5078218367E-02       7    6    1         0.2820249219E+00      0.2821600188E+00
          0                14           2             7    6     1       0.5078233421E-02       7    6    1         0.2820232586E+00      0.2821582974E+00
          0                15           2             7    6     1       0.5078212890E-02       7    6    1         0.2820196181E+00      0.2821546120E+00
          0                16           2             7    6     1       0.5078212381E-02       7    6    1         0.2820170899E+00      0.2821520195E+00
          0                17           2             7    6     1       0.5078210270E-02       7    6    1         0.2820144725E+00      0.2821493838E+00
          0                18           2             7    6     1       0.5078208290E-02       7    6    1         0.2820118624E+00      0.2821467092E+00
          0                19           2             7    6     1       0.5078206298E-02       7    6    1         0.2820092517E+00      0.2821440330E+00
          0                20           2             7    6     1       0.5078204309E-02       7    6    1         0.2820066411E+00      0.2821413843E+00
                                                   Max.-Head-Change                         Max.-Flux-Residual
  Residual-Control   Outer-Iter.   Inner-Iter.     Column Row Layer    Maximum-Head-Change  Column Row Layer    Maximum-Flux-Residual          L2-NORM 
          0                21           2             7    6     1       0.5078202319E-02       7    6    1         0.2820040306E+00      0.2821387183E+00
          0                22           2             7    6     1       0.5078200329E-02       7    6    1         0.2820014201E+00      0.2821360754E+00
          0                23           2             7    6     1       0.5078198339E-02       7    6    1         0.2819988096E+00      0.2821334175E+00
          0                24           2             7    6     1       0.5078196349E-02       7    6    1         0.2819961993E+00      0.2821307220E+00
          0                25           2             7    6     1       0.5078194359E-02       7    6    1         0.2819935889E+00      0.2821280944E+00
          0                26           2             7    6     1       0.5078192370E-02       7    6    1         0.2819909786E+00      0.2821254230E+00
          0                27           2             7    6     1       0.5078190380E-02       7    6    1         0.2819883684E+00      0.2821227532E+00
          0                28           2             7    6     1       0.5078205561E-02       7    6    1         0.2819867118E+00      0.2821210789E+00
          0                29           2             7    6     1       0.5078202195E-02       7    6    1         0.2819840251E+00      0.2821183038E+00
          0                30           2             7    6     1       0.5078200316E-02       7    6    1         0.2819814211E+00      0.2821156707E+00
                                                   Max.-Head-Change                         Max.-Flux-Residual
  Residual-Control   Outer-Iter.   Inner-Iter.     Column Row Layer    Maximum-Head-Change  Column Row Layer    Maximum-Flux-Residual          L2-NORM 
          0                31           2             7    6     1       0.5078198317E-02       7    6    1         0.2819788106E+00      0.2821129902E+00
          0                32           2             7    6     1       0.5078196328E-02       7    6    1         0.2819762006E+00      0.2821103694E+00
          0                33           2             7    6     1       0.5078194338E-02       7    6    1         0.2819735906E+00      0.2821076613E+00
          0                34           2             7    6     1       0.5078192348E-02       7    6    1         0.2819709807E+00      0.2821050380E+00
          0                35           2             7    6     1       0.5078190359E-02       7    6    1         0.2819683708E+00      0.2821023706E+00
          0                36           2             7    6     1       0.5078188369E-02       7    6    1         0.2819657610E+00      0.2820997023E+00
          0                37           2             7    6     1       0.5078186379E-02       7    6    1         0.2819631512E+00      0.2820970518E+00
          0                38           2             7    6     1       0.5078184389E-02       7    6    1         0.2819605415E+00      0.2820943692E+00
          0                39           2             7    6     1       0.5078182400E-02       7    6    1         0.2819579318E+00      0.2820917257E+00
          0                40           2             7    6     1       0.5078180410E-02       7    6    1         0.2819553222E+00      0.2820890662E+00
                                                   Max.-Head-Change                         Max.-Flux-Residual
  Residual-Control   Outer-Iter.   Inner-Iter.     Column Row Layer    Maximum-Head-Change  Column Row Layer    Maximum-Flux-Residual          L2-NORM 
          0                41           2             7    6     1       0.5078178420E-02       7    6    1         0.2819527126E+00      0.2820864042E+00
          0                42           2             7    6     1       0.5078176430E-02       7    6    1         0.2819501030E+00      0.2820837502E+00
          0                43           2             7    6     1       0.5078174440E-02       7    6    1         0.2819474936E+00      0.2820810895E+00
          0                44           2             7    6     1       0.5078172451E-02       7    6    1         0.2819448841E+00      0.2820784003E+00
          0                45           2             7    6     1       0.5078170461E-02       7    6    1         0.2819422747E+00      0.2820757785E+00
          0                46           2             7    6     1       0.5078168471E-02       7    6    1         0.2819396654E+00      0.2820731035E+00
          0                47           2             7    6     1       0.5078166481E-02       7    6    1         0.2819370561E+00      0.2820704624E+00
          0                48           2             7    6     1       0.5078164492E-02       7    6    1         0.2819344469E+00      0.2820677722E+00
          0                49           2             7    6     1       0.5078162502E-02       7    6    1         0.2819318377E+00      0.2820651200E+00
          0                50           2             7    6     1       0.5088105915E-02       7    6    1         0.2820257186E+00      0.2821585294E+00
                                                   Max.-Head-Change                         Max.-Flux-Residual
  Residual-Control   Outer-Iter.   Inner-Iter.     Column Row Layer    Maximum-Head-Change  Column Row Layer    Maximum-Flux-Residual          L2-NORM 
          0                51           2             7    6     1       0.5086213678E-02       7    6    1         0.2819187949E+00      0.2820514793E+00
          0                52           2             7    6     1       0.5133117420E-02       7    6    1         0.2845166678E+00      0.2846480583E+00
          0                53           2             7    6     1       0.6403853273E-02       7    6    1         0.3549589464E+00      0.3550643179E+00
          0                54           2             7    6     1       0.3995191600E-02       7    6    1         0.2214197106E+00      0.2215928418E+00
          0                55           2             7    6     1       0.7071492996E-03       7    6    1         0.3916029773E-01      0.4008927960E-01
          0                56           2             2   13     1      -0.1264994426E-03       2   13    1        -0.7300817116E-02      0.1090206909E-01
          0                57           1             2   13     1      -0.1264648528E-03       2   13    1        -0.7298436104E-02      0.8483724503E-02
          0                58           1             2   13     1      -0.1264465593E-03       2   13    1        -0.7296983135E-02      0.8395283210E-02
          0                59           1             2   13     1      -0.1264122171E-03       2   13    1        -0.7294606819E-02      0.8390608544E-02
          0                60           1             2   13     1      -0.1263663666E-03       2   13    1        -0.7291562431E-02      0.8388110193E-02
                                                   Max.-Head-Change                         Max.-Flux-Residual
  Residual-Control   Outer-Iter.   Inner-Iter.     Column Row Layer    Maximum-Head-Change  Column Row Layer    Maximum-Flux-Residual          L2-NORM 
          0                61           1             2   13     1      -0.1263528463E-03       2   13    1        -0.7290389603E-02      0.8387477622E-02
          0                62           1             2   13     1      -0.1263028192E-03       2   13    1        -0.7287103425E-02      0.8384961985E-02
          0                63           1             2   13     1      -0.1262708220E-03       2   13    1        -0.7284862877E-02      0.8383248842E-02
          0                64           1             2   13     1      -0.1262510552E-03       2   13    1        -0.7283326355E-02      0.8382499611E-02
          0                65           1             2   13     1      -0.1262065203E-03       2   13    1        -0.7280365900E-02      0.8380073562E-02
          0                66           1             2   13     1      -0.7863135906E-04       2   13    1        -0.4535715055E-02      0.5244499047E-02
          0                67           1             2   13     1       0.6214989164E-05       2   13    1         0.3618639248E-03      0.4446544353E-03

    ------------------------------------------------
       NWT REQUIRED           67 OUTER ITERATIONS 
       AND A TOTAL OF        123 INNER ITERATIONS.
    ------------------------------------------------

 NO OUTPUT CONTROL FOR STRESS PERIOD    8   TIME STEP   12
 
 SOLVING FOR HEAD 
                                                   Max.-Head-Change                         Max.-Flux-Residual
  Residual-Control   Outer-Iter.   Inner-Iter.     Column Row Layer    Maximum-Head-Change  Column Row Layer    Maximum-Flux-Residual          L2-NORM 
          0                 1           2             3   13     1      -0.2580330043E-01       3   13    1        -0.1374738545E+01      0.2739889125E+01
          0                 2           2             7    6     1      -0.2803953538E+00       7    6    1        -0.1541225029E+02      0.1542049005E+02
          0                 3           2             7    6     1       0.3115218470E-01       7    6    1         0.1732711821E+01      0.1743982251E+01
          0                 4           2             7    6     1       0.7256033379E-02       7    6    1         0.4031930402E+00      0.4103775938E+00
          0                 5           2             7    6     1       0.9176129933E-02       7    6    1         0.5096961818E+00      0.5110202761E+00
          0                 6           2             7    6     1       0.9023281445E-02       7    6    1         0.5011581469E+00      0.5016230305E+00
          0                 7           2             7    6     1       0.9035708269E-02       7    6    1         0.5018380241E+00      0.5021263870E+00
          0                 8           2             7    6     1       0.9034716904E-02       7    6    1         0.5017775475E+00      0.5020304637E+00
          0                 9           2             7    6     1       0.9034811159E-02       7    6    1         0.5017783300E+00      0.5020239815E+00
          0                10           2             7    6     1       0.9034762964E-02       7    6    1         0.5017713421E+00      0.5020154218E+00
                                                   Max.-Head-Change                         Max.-Flux-Residual
  Residual-Control   Outer-Iter.   Inner-Iter.     Column Row Layer    Maximum-Head-Change  Column Row Layer    Maximum-Flux-Residual          L2-NORM 
          0                11           2             7    6     1       0.9034794317E-02       7    6    1         0.5017687919E+00      0.5020124508E+00
          0                12           2             7    6     1       0.9034750603E-02       7    6    1         0.5017620713E+00      0.5020054912E+00
          0                13           2             7    6     1       0.9034781603E-02       7    6    1         0.5017594999E+00      0.5020027795E+00
          0                14           2             7    6     1       0.9034737964E-02       7    6    1         0.5017527812E+00      0.5019958969E+00
          0                15           2             7    6     1       0.9034768987E-02       7    6    1         0.5017502098E+00      0.5019931646E+00
          0                16           2             7    6     1       0.9034742528E-02       7    6    1         0.5017444449E+00      0.5019872676E+00
          0                17           2             7    6     1       0.9034755014E-02       7    6    1         0.5017408436E+00      0.5019835116E+00
          0                18           2             7    6     1       0.9034747211E-02       7    6    1         0.5017361151E+00      0.5019786355E+00
          0                19           2             7    6     1       0.9034741035E-02       7    6    1         0.5017314772E+00      0.5019738150E+00
          0                20           2             7    6     1       0.9034734728E-02       7    6    1         0.5017268321E+00      0.5019690524E+00
                                                   Max.-Head-Change                         Max.-Flux-Residual
  Residual-Control   Outer-Iter.   Inner-Iter.     Column Row Layer    Maximum-Head-Change  Column Row Layer    Maximum-Flux-Residual          L2-NORM 
          0                21           2             7    6     1       0.9034728432E-02       7    6    1         0.5017221876E+00      0.5019642313E+00
          0                22           2             7    6     1       0.9034722134E-02       7    6    1         0.5017175432E+00      0.5019594373E+00
          0                23           2             7    6     1       0.9034715838E-02       7    6    1         0.5017128989E+00      0.5019546479E+00
          0                24           2             7    6     1       0.9034709540E-02       7    6    1         0.5017082547E+00      0.5019498508E+00
          0                25           2             7    6     1       0.9034703244E-02       7    6    1         0.5017036105E+00      0.5019450416E+00
          0                26           2             7    6     1       0.9034696946E-02       7    6    1         0.5016989664E+00      0.5019402490E+00
          0                27           2             7    6     1       0.9034690649E-02       7    6    1         0.5016943225E+00      0.5019354743E+00
          0                28           2             7    6     1       0.9034684353E-02       7    6    1         0.5016896786E+00      0.5019306395E+00
          0                29           2             7    6     1       0.9052878765E-02       7    6    1         0.5018852027E+00      0.5021250363E+00
          0                30           2             7    6     1       0.9048957096E-02       7    6    1         0.5016641463E+00      0.5019040113E+00
                                                   Max.-Head-Change                         Max.-Flux-Residual
  Residual-Control   Outer-Iter.   Inner-Iter.     Column Row Layer    Maximum-Head-Change  Column Row Layer    Maximum-Flux-Residual          L2-NORM 
          0                31           2             7    6     1       0.6570963479E-02       7    6    1         0.3642609822E+00      0.3645908374E+00
          0                32           2             7    6     1       0.1164161691E-02       7    6    1         0.6448425970E-01      0.6628123857E-01
          0                33           2             2   13     1      -0.2270052211E-03       2   13    1        -0.1310256680E-01      0.1892697640E-01
          0                34           2             2   13     1      -0.2269115065E-03       2   13    1        -0.1309598764E-01      0.1519462177E-01
          0                35           2             2   13     1      -0.2268127579E-03       2   13    1        -0.1308911714E-01      0.1505640208E-01
          0                36           2             2   13     1      -0.2267107916E-03       2   13    1        -0.1308205989E-01      0.1504722557E-01
          0                37           2             2   13     1      -0.2023056884E-03       2   13    1        -0.1167281783E-01      0.1344004745E-01
          0                38           1             2   13     1       0.1591632075E-04       2   13    1         0.9269398970E-03      0.1121185350E-02
          0                39           1             2   13     1      -0.1097337971E-05       2   13    1        -0.6444809060E-04      0.1012204698E-03

    ------------------------------------------------
       NWT REQUIRED           39 OUTER ITERATIONS 
       AND A TOTAL OF         76 INNER ITERATIONS.
    ------------------------------------------------

 NO OUTPUT CONTROL FOR STRESS PERIOD    8   TIME STEP   13
 
 SOLVING FOR HEAD 
                                                   Max.-Head-Change                         Max.-Flux-Residual
  Residual-Control   Outer-Iter.   Inner-Iter.     Column Row Layer    Maximum-Head-Change  Column Row Layer    Maximum-Flux-Residual          L2-NORM 
          0                 1           2             3   13     1      -0.2523215464E-01       3   13    1        -0.1344836686E+01      0.2661268923E+01
          0                 2           2             7    6     1      -0.2736251837E+00       7    6    1        -0.1504018596E+02      0.1504840411E+02
          0                 3           2             7    6     1       0.3723713087E-01       7    6    1         0.2070676819E+01      0.2080115510E+01
          0                 4           2             7    6     1       0.1346825459E-01       7    6    1         0.7482281626E+00      0.7523764639E+00
          0                 5           2             7    6     1       0.1537808089E-01       7    6    1         0.8541560173E+00      0.8552083059E+00
          0                 6           2             7    6     1       0.1522609286E-01       7    6    1         0.8456631885E+00      0.8462095470E+00
          0                 7           2             7    6     1       0.1523839005E-01       7    6    1         0.8463332800E+00      0.8467758407E+00
          0                 8           2             7    6     1       0.1523744874E-01       7    6    1         0.8462730285E+00      0.8466944635E+00
          0                 9           2             7    6     1       0.1523747499E-01       7    6    1         0.8462674870E+00      0.8466843670E+00
          0                10           2             7    6     1       0.1523748838E-01       7    6    1         0.8462613758E+00      0.8466769511E+00
                                                   Max.-Head-Change                         Max.-Flux-Residual
  Residual-Control   Outer-Iter.   Inner-Iter.     Column Row Layer    Maximum-Head-Change  Column Row Layer    Maximum-Flux-Residual          L2-NORM 
          0                11           2             7    6     1       0.1523746793E-01       7    6    1         0.8462534031E+00      0.8466684333E+00
          0                12           2             7    6     1       0.1523745016E-01       7    6    1         0.8462455798E+00      0.8466601244E+00
          0                13           2             7    6     1       0.1523743220E-01       7    6    1         0.8462377446E+00      0.8466518614E+00
          0                14           2             7    6     1       0.1523741428E-01       7    6    1         0.8462299105E+00      0.8466436374E+00
          0                15           2             7    6     1       0.1523739636E-01       7    6    1         0.8462220765E+00      0.8466353497E+00
          0                16           2             7    6     1       0.1523737845E-01       7    6    1         0.8462142427E+00      0.8466271141E+00
          0                17           2             7    6     1       0.1523736054E-01       7    6    1         0.8462064089E+00      0.8466188519E+00
          0                18           2             7    6     1       0.1526713784E-01       7    6    1         0.8464856804E+00      0.8468964098E+00
          0                19           2             7    6     1       0.8638552484E-02       7    6    1         0.4788994403E+00      0.4796236550E+00
          0                20           2             7    6     1       0.1531405663E-02       7    6    1         0.8483021972E-01      0.8869850358E-01
                                                   Max.-Head-Change                         Max.-Flux-Residual
  Residual-Control   Outer-Iter.   Inner-Iter.     Column Row Layer    Maximum-Head-Change  Column Row Layer    Maximum-Flux-Residual          L2-NORM 
          0                21           2             2   13     1      -0.3857748809E-03       2   13    1        -0.2226465322E-01      0.2971019888E-01
          0                22           2             2   13     1      -0.3353621560E-03       2   13    1        -0.1935260430E-01      0.2243528476E-01
          0                23           1             2   13     1       0.2634263770E-04       2   13    1         0.1534366162E-02      0.1915516775E-02
          0                24           1             2   13     1      -0.1810864617E-05       2   13    1        -0.1063619302E-03      0.1881158106E-03

    ------------------------------------------------
       NWT REQUIRED           24 OUTER ITERATIONS 
       AND A TOTAL OF         46 INNER ITERATIONS.
    ------------------------------------------------

 NO OUTPUT CONTROL FOR STRESS PERIOD    8   TIME STEP   14
 
 SOLVING FOR HEAD 
                                                   Max.-Head-Change                         Max.-Flux-Residual
  Residual-Control   Outer-Iter.   Inner-Iter.     Column Row Layer    Maximum-Head-Change  Column Row Layer    Maximum-Flux-Residual          L2-NORM 
          0                 1           2             3   13     1      -0.2467035915E-01       3   13    1        -0.1315364207E+01      0.2591323146E+01
          0                 2           2             7    6     1      -0.2668966620E+00       7    6    1        -0.1467040989E+02      0.1467864847E+02
          0                 3           2             7    6     1       0.4328454545E-01       7    6    1         0.2406557914E+01      0.2414726070E+01
          0                 4           2             7    6     1       0.1964215862E-01       7    6    1         0.1091136413E+01      0.1094271183E+01
          0                 5           2             7    6     1       0.2154184778E-01       7    6    1         0.1196496985E+01      0.1197536207E+01
          0                 6           2             7    6     1       0.2139062993E-01       7    6    1         0.1188044394E+01      0.1188727811E+01
          0                 7           2             7    6     1       0.2140288265E-01       7    6    1         0.1188709749E+01      0.1189319549E+01
          0                 8           2             7    6     1       0.2140187487E-01       7    6    1         0.1188643592E+01      0.1189238041E+01
          0                 9           2             7    6     1       0.2140193919E-01       7    6    1         0.1188637961E+01      0.1189228654E+01
          0                10           2             7    6     1       0.2140189639E-01       7    6    1         0.1188626526E+01      0.1189215837E+01
                                                   Max.-Head-Change                         Max.-Flux-Residual
  Residual-Control   Outer-Iter.   Inner-Iter.     Column Row Layer    Maximum-Head-Change  Column Row Layer    Maximum-Flux-Residual          L2-NORM 
          0                11           2             7    6     1       0.2140186162E-01       7    6    1         0.1188615556E+01      0.1189203931E+01
          0                12           2             7    6     1       0.2140182618E-01       7    6    1         0.1188604550E+01      0.1189192106E+01
          0                13           2             7    6     1       0.2140179083E-01       7    6    1         0.1188593546E+01      0.1189180303E+01
          0                14           2             7    6     1       0.1010800597E-01       7    6    1         0.5603685118E+00      0.5615978649E+00
          0                15           2             7    6     1       0.1792379837E-02       7    6    1         0.9928763984E-01      0.1057945818E+00
          0                16           2             7    6     1       0.3181793385E-03       7    6    1         0.1761132646E-01      0.2654101192E-01
          0                17           1             7    6     1       0.5654471165E-04       7    6    1         0.3127272841E-02      0.3564935024E-02
          0                18           1             7    6     1       0.1005984548E-04       7    6    1         0.5559270105E-03      0.5842756563E-03
          0                19           1             7    6     1       0.1791724565E-05       7    6    1         0.9893486231E-04      0.1033159651E-03

    ------------------------------------------------
       NWT REQUIRED           19 OUTER ITERATIONS 
       AND A TOTAL OF         35 INNER ITERATIONS.
    ------------------------------------------------

 OUTPUT CONTROL FOR STRESS PERIOD    8   TIME STEP   15
    PRINT BUDGET
    PRINT HEAD FOR ALL LAYERS
    SAVE HEAD FOR ALL LAYERS
    SAVE BUDGET
 UBUDSV SAVING "         STORAGE" ON UNIT102 AT TIME STEP    15, STRESS PERIOD    8
 UBUDSV SAVING "   CONSTANT HEAD" ON UNIT102 AT TIME STEP    15, STRESS PERIOD    8
 UBUDSV SAVING "FLOW RIGHT FACE " ON UNIT102 AT TIME STEP    15, STRESS PERIOD    8
 UBUDSV SAVING "FLOW FRONT FACE " ON UNIT102 AT TIME STEP    15, STRESS PERIOD    8

  HEAD DEP BOUNDS   PERIOD    8   STEP    15
 BOUNDARY      1   LAYER   1   ROW    13   COL     1   RATE   -0.274702    
 BOUNDARY      2   LAYER   1   ROW    14   COL     9   RATE     1.04029    



 STREAM LISTING     PERIOD      8   STEP       15

 LAYER ROW COL. STREAM  RCH.  FLOW INTO     FLOW TO   FLOW OUT OF   OVRLND.     DIRECT     STREAM       STREAM     STREAM     STREAM   STREAMBED  STREAMBED
                SEG.NO.  NO.  STRM. RCH.    AQUIFER    STRM. RCH.    RUNOFF     PRECIP       ET          HEAD       DEPTH      WIDTH   CONDCTNC.   GRADIENT

   1    1    1     1     1    3.5000E+01  2.8629E-11   3.5000E+01  0.000E+00  0.000E+00  0.000E+00  1.09434E+03  1.292E+00  1.482E+01  6.670E-12  1.431E+00
   1    2    2     1     2    3.5000E+01  4.4488E-11   3.5000E+01  0.000E+00  0.000E+00  0.000E+00  1.08935E+03  1.292E+00  1.481E+01  1.037E-11  1.431E+00
   1    3    3     1     3    3.5000E+01  3.8148E-11   3.5000E+01  0.000E+00  0.000E+00  0.000E+00  1.08371E+03  1.292E+00  1.481E+01  8.888E-12  1.431E+00
   1    3    4     1     4    3.5000E+01  3.5294E-11   3.5000E+01  0.000E+00  0.000E+00  0.000E+00  1.07870E+03  1.292E+00  1.482E+01  8.223E-12  1.431E+00
   1    4    5     2     1    3.3000E+01  3.4491E-01   3.2655E+01  0.000E+00  0.000E+00  0.000E+00  1.07336E+03  1.422E+00  1.200E+01  7.800E-02  1.474E+00
   1    5    6     2     2    3.2655E+01  2.6484E-01   3.2390E+01  0.000E+00  0.000E+00  0.000E+00  1.06792E+03  1.414E+00  1.200E+01  6.000E-02  1.471E+00
   1    6    6     2     3    3.2390E+01  2.6443E-01   3.2126E+01  0.000E+00  0.000E+00  0.000E+00  1.06320E+03  1.407E+00  1.200E+01  6.000E-02  1.469E+00
   1    7    6     2     4    3.2126E+01  2.6401E-01   3.1862E+01  0.000E+00  0.000E+00  0.000E+00  1.05848E+03  1.400E+00  1.200E+01  6.000E-02  1.467E+00
   1    8    6     2     5    3.1862E+01  2.6359E-01   3.1598E+01  0.000E+00  0.000E+00  0.000E+00  1.05375E+03  1.393E+00  1.200E+01  6.000E-02  1.464E+00
   1    3    5     3     1    2.0000E+00  2.8252E-01   1.7175E+00  0.000E+00  0.000E+00  0.000E+00  1.07555E+03  1.909E+00  9.636E+00  7.227E-02  1.955E+00
   1    3    6     3     2    1.7175E+00  2.4905E-01   1.4684E+00  0.000E+00  0.000E+00  0.000E+00  1.07264E+03  1.727E+00  8.909E+00  6.682E-02  1.864E+00
   1    3    7     3     3    1.4684E+00  1.9718E-01   1.2712E+00  0.000E+00  0.000E+00  0.000E+00  1.06987E+03  1.555E+00  8.218E+00  5.547E-02  1.777E+00
   1    4    8     3     4    1.2712E+00  2.2567E-01   1.0456E+00  0.000E+00  0.000E+00  0.000E+00  1.06682E+03  1.364E+00  7.455E+00  6.709E-02  1.682E+00
   1    5    8     3     5    1.0456E+00  1.5790E-01   8.8768E-01  0.000E+00  0.000E+00  0.000E+00  1.06362E+03  1.164E+00  6.655E+00  4.991E-02  1.582E+00
   1    6    8     3     6    8.8768E-01  5.5980E-02   8.3170E-01  0.000E+00  0.000E+00  0.000E+00  1.06158E+03  1.036E+00  6.145E+00  1.844E-02  1.518E+00
   1    5   10     4     1    1.0000E+01  9.0919E-02   9.9091E+00  0.000E+00  0.000E+00  0.000E+00  1.07836E+03  6.368E-01  1.000E+01  2.500E-02  1.212E+00
   1    5    9     4     2    9.9091E+00  1.8158E-01   9.7275E+00  0.000E+00  0.000E+00  0.000E+00  1.07154E+03  6.315E-01  1.000E+01  5.000E-02  1.211E+00
   1    6    8     4     3    9.7275E+00  1.2689E-01   9.6006E+00  0.000E+00  0.000E+00  0.000E+00  1.06381E+03  6.256E-01  1.000E+01  3.500E-02  1.209E+00
   1    6    8     5     1    1.0432E+01  2.2686E-09   1.0432E+01  0.000E+00  0.000E+00  0.000E+00  1.05868E+03  6.790E-01  1.542E+01  6.166E-10  1.226E+00
   1    7    7     5     2    1.0432E+01  2.8306E-09   1.0432E+01  0.000E+00  0.000E+00  0.000E+00  1.05418E+03  6.784E-01  1.539E+01  7.695E-10  1.226E+00
   1    8    7     5     3    1.0432E+01  1.9868E-09   1.0432E+01  0.000E+00  0.000E+00  0.000E+00  1.04993E+03  6.794E-01  1.543E+01  5.400E-10  1.226E+00
   1    8    6     5     4    1.0432E+01  1.4217E-09   1.0432E+01  0.000E+00  0.000E+00  0.000E+00  1.04693E+03  6.800E-01  1.545E+01  3.863E-10  1.227E+00
   1    9    6     6     1    2.2031E+01  2.4768E-01   2.1783E+01  0.000E+00  0.000E+00  0.000E+00  1.04386E+03  1.128E+00  1.200E+01  6.000E-02  1.376E+00
   1   10    7     6     2    2.1783E+01  2.4722E-01   2.1536E+01  0.000E+00  0.000E+00  0.000E+00  1.03930E+03  1.120E+00  1.200E+01  6.000E-02  1.373E+00
   1   11    7     6     3    2.1536E+01  2.4676E-01   2.1289E+01  0.000E+00  0.000E+00  0.000E+00  1.03475E+03  1.113E+00  1.200E+01  6.000E-02  1.371E+00
   1   12    7     6     4    2.1289E+01  2.4630E-01   2.1043E+01  0.000E+00  0.000E+00  0.000E+00  1.03020E+03  1.105E+00  1.200E+01  6.000E-02  1.368E+00
   1   13    7     6     5    2.1043E+01  9.8389E-02   2.0944E+01  0.000E+00  0.000E+00  0.000E+00  1.02701E+03  1.100E+00  1.200E+01  2.400E-02  1.367E+00
   1   14    9     7     1    1.5000E+02  2.9539E-08   1.5000E+02  0.000E+00  0.000E+00  0.000E+00  1.03986E+03  2.283E+00  5.528E+01  5.591E-09  1.761E+00
   1   13    8     7     2    1.5000E+02  3.2486E-14   1.5000E+02  0.000E+00  0.000E+00  0.000E+00  1.03478E+03  2.283E+00  5.527E+01  6.150E-15  1.761E+00
   1   13    7     7     3    1.5000E+02  2.9539E-08   1.5000E+02  0.000E+00  0.000E+00  0.000E+00  1.02970E+03  2.283E+00  5.528E+01  5.591E-09  1.761E+00
   1   13    6     8     1    1.7094E+02  2.6045E-32   1.7094E+02  0.000E+00  0.000E+00  0.000E+00  1.02483E+03  2.958E+00  4.290E+01  4.371E-33  1.986E+00
   1   13    5     8     2    1.7094E+02  2.5934E-15   1.7094E+02  0.000E+00  0.000E+00  0.000E+00  1.01857E+03  2.950E+00  4.277E+01  4.359E-16  1.983E+00
   1   13    4     8     3    1.7094E+02  2.1200E-16   1.7094E+02  0.000E+00  0.000E+00  0.000E+00  1.01233E+03  2.951E+00  4.280E+01  4.361E-17  1.620E+00
   1   13    3     8     4    1.7094E+02  6.1243E-10   1.7094E+02  0.000E+00  0.000E+00  0.000E+00  1.00608E+03  2.956E+00  4.287E+01  4.368E-10  4.673E-01
   1   13    2     8     5    1.7094E+02 -5.9825E-01   1.7154E+02  0.000E+00  0.000E+00  0.000E+00  9.99835E+02  2.960E+00  4.292E+01  4.374E+00 -4.559E-02
   1   13    1     8     6    1.7154E+02 -1.0213E+00   1.7256E+02  0.000E+00  0.000E+00  0.000E+00  9.94841E+02  2.966E+00  4.300E+01  2.629E+00 -1.295E-01
   1    6    8     9     1    2.0000E+01  0.0000E+00   2.0000E+01  0.000E+00  0.000E+00  0.000E+00  1.07932E+03  8.168E-01  4.000E+00  0.000E+00  1.272E+00



 UBDSV3 SAVING "     NETRECHARGE" ON UNIT 100 AT TIME STEP    15, STRESS PERIOD   8
 UBDSV3 SAVING "    NETDISCHARGE" ON UNIT 101 AT TIME STEP    15, STRESS PERIOD   8
 UBDSV3 SAVING "           GW ET" ON UNIT  61 AT TIME STEP    15, STRESS PERIOD   8
 UBDSV3 SAVING "    UZF RECHARGE" ON UNIT  61 AT TIME STEP    15, STRESS PERIOD   8
 UBDSV3 SAVING " SURFACE LEAKAGE" ON UNIT  61 AT TIME STEP    15, STRESS PERIOD   8
 UBDSV3 SAVING "       HORT+DUNN" ON UNIT  61 AT TIME STEP    15, STRESS PERIOD   8
 UBDSV3 SAVING "  STORAGE CHANGE" ON UNIT  61 AT TIME STEP    15, STRESS PERIOD   8


UNSATURATED ZONE PACKAGE VOLUMETRIC BUDGET FOR  TIME STEP    15 STRESS PERIOD    8
  ------------------------------------------------------------------------------



     CUMULATIVE VOLUMES      L**3       RATES FOR THIS TIME STEP      L**3/T
     ------------------                 ------------------------

           IN:                                      IN:
           ---                                      ---
        INFILTRATION =    35528156.6721          INFILTRATION =          20.8475

          OUT:                                     OUT:
          ----                                     ----
              UZF ET =   543970104.0428                UZF ET =          27.2483
        UZF RECHARGE =   482973985.6431          UZF RECHARGE =          26.6435

            IN - OUT =  -991415933.0138              IN - OUT =         -33.0443

          STORAGE:                                 STORAGE:
          --------                                 --------
      STORAGE CHANGE =  -991411626.6041        STORAGE CHANGE =         -33.0443

 PERCENT DISCREPANCY IS DIFFERENCE BETWEEN IN-OUT MINUS CHANGE IN STORAGE
 DIVIDED BY THE AVERAGE OF IN AND OUT TIMES 100

 PERCENT DISCREPANCY =          -0.00     PERCENT DISCREPANCY =           0.00






1
              HEAD IN LAYER   1 AT END OF TIME STEP    15 IN STRESS PERIOD    8
  -----------------------------------------------------------------------------

           1       2       3       4       5       6       7       8       9      10
 ...................................................................................
   1  1012.08 1011.92 6999.00 6999.00 6999.00 6999.00 6999.00 6999.00 6999.00 6999.00
   2  1013.30 1011.72 1011.67 6999.00 6999.00 1013.77 1013.88 1013.82 6999.00 6999.00
   3  6999.00 1012.18 1011.77 1011.87 1012.89 1013.62 1014.00 1013.80 6999.00 6999.00
   4  1013.25 1012.60 1012.00 1011.83 1012.09 1012.15 1012.69 1013.76 1013.53 6999.00
   5  1013.19 1012.58 1011.99 1011.65 1011.75 1011.93 1011.97 1012.27 1012.76 1013.22
   6  1013.09 1012.44 1011.84 1011.45 1011.51 1011.72 1011.75 1012.00 1012.74 1013.95
   7  1012.97 1012.19 1011.60 1011.21 1011.27 1011.49 1011.52 1011.72 1012.78 6999.00
   8  6999.00 1011.76 1011.28 1010.91 1010.99 1011.24 1011.29 1011.91 1012.93 6999.00
   9  6999.00 1011.07 1010.75 1010.50 1010.63 1010.94 1011.11 1011.92 1013.04 6999.00
  10  6999.00 1010.02 1009.96 1009.96 1010.20 1010.60 1011.07 1011.96 1013.19 1013.99
  11  6999.00 1008.21 1008.57 1009.21 1009.72 1010.33 1011.03 1012.10 1013.52 6999.00
  12  1000.89 1004.59 1006.72 1008.20 1009.21 1010.14 1011.07 1012.49 1014.49 6999.00
  13   995.23  999.97 1004.68 1007.47 1008.92 1010.11 1011.41 1012.98 1015.50 6999.00
  14  6999.00 1004.78 1006.36 1008.22 1009.66 1010.97 1012.55 1014.96 1017.62 6999.00
  15  6999.00 6999.00 1008.54 1009.51 1010.56 1011.34 6999.00 6999.00 6999.00 6999.00

 HEAD WILL BE SAVED ON UNIT   62 AT END OF TIME STEP   15, STRESS PERIOD    8
1
  VOLUMETRIC BUDGET FOR ENTIRE MODEL AT END OF TIME STEP   15, STRESS PERIOD   8
  ------------------------------------------------------------------------------

     CUMULATIVE VOLUMES      L**3       RATES FOR THIS TIME STEP      L**3/T
     ------------------                 ------------------------

           IN:                                      IN:
           ---                                      ---
             STORAGE =     8901135.0000               STORAGE =           3.7064
       CONSTANT HEAD =           0.0000         CONSTANT HEAD =           0.0000
               WELLS =           0.0000                 WELLS =           0.0000
     HEAD DEP BOUNDS =    20837612.0000       HEAD DEP BOUNDS =           1.0403
      STREAM LEAKAGE =    78895800.0000        STREAM LEAKAGE =           4.0558
        UZF RECHARGE =   482973920.0000          UZF RECHARGE =          26.6435
               GW ET =           0.0000                 GW ET =           0.0000
     SURFACE LEAKAGE =           0.0000       SURFACE LEAKAGE =           0.0000

            TOTAL IN =   591608448.0000              TOTAL IN =          35.4460

          OUT:                                     OUT:
          ----                                     ----
             STORAGE =   521588960.0000               STORAGE =          27.5731
       CONSTANT HEAD =           0.0000         CONSTANT HEAD =           0.0000
               WELLS =           0.0000                 WELLS =           0.0000
     HEAD DEP BOUNDS =     5685923.0000       HEAD DEP BOUNDS =           0.2747
      STREAM LEAKAGE =    50687612.0000        STREAM LEAKAGE =           1.6196
        UZF RECHARGE =           0.0000          UZF RECHARGE =           0.0000
               GW ET =    13608299.0000                 GW ET =           5.9786
     SURFACE LEAKAGE =           0.0000       SURFACE LEAKAGE =           0.0000

           TOTAL OUT =   591570816.0000             TOTAL OUT =          35.4460

            IN - OUT =       37632.0000              IN - OUT =       7.6294E-06

 PERCENT DISCREPANCY =           0.01     PERCENT DISCREPANCY =           0.00






         TIME SUMMARY AT END OF TIME STEP   15 IN STRESS PERIOD    8
                    SECONDS     MINUTES      HOURS       DAYS        YEARS
                    -----------------------------------------------------------
   TIME STEP LENGTH  87600.      1460.0      24.333      1.0139     2.77588E-03
 STRESS PERIOD TIME 1.31400E+06  21900.      365.00      15.208     4.16381E-02
         TOTAL TIME 1.97100E+07 3.28500E+05  5475.0      228.12     0.62457    
1
 
 SOLVING FOR HEAD 
                                                   Max.-Head-Change                         Max.-Flux-Residual
  Residual-Control   Outer-Iter.   Inner-Iter.     Column Row Layer    Maximum-Head-Change  Column Row Layer    Maximum-Flux-Residual          L2-NORM 
          0                 1           2             3   13     1      -0.2411796026E-01       3   13    1        -0.1286374579E+01      0.2526560031E+01
          0                 2           2             7    6     1      -0.2637642478E+00       7    6    1        -0.1449827023E+02      0.1450648377E+02
          0                 3           2             7    6     1       0.4610003983E-01       7    6    1         0.2562934991E+01      0.2570622203E+01
          0                 4           2             7    6     1       0.2251652059E-01       7    6    1         0.1250783958E+01      0.1253673058E+01
          0                 5           2             7    6     1       0.2441144388E-01       7    6    1         0.1355877972E+01      0.1356948509E+01
          0                 6           2             7    6     1       0.2426063485E-01       7    6    1         0.1347447023E+01      0.1348206329E+01
          0                 7           2             7    6     1       0.2427282749E-01       7    6    1         0.1348108099E+01      0.1348802664E+01
          0                 8           2             7    6     1       0.2427184808E-01       7    6    1         0.1348042598E+01      0.1348723427E+01
          0                 9           2             7    6     1       0.2427188207E-01       7    6    1         0.1348034366E+01      0.1348711575E+01
          0                10           2             7    6     1       0.2427183078E-01       7    6    1         0.1348021546E+01      0.1348697258E+01
                                                   Max.-Head-Change                         Max.-Flux-Residual
  Residual-Control   Outer-Iter.   Inner-Iter.     Column Row Layer    Maximum-Head-Change  Column Row Layer    Maximum-Flux-Residual          L2-NORM 
          0                11           2             7    6     1       0.2427178577E-01       7    6    1         0.1348009093E+01      0.1348683691E+01
          0                12           2             7    6     1       0.2401270615E-01       7    6    1         0.1331455262E+01      0.1332135776E+01
          0                13           2             7    6     1       0.1780711807E-02       7    6    1         0.9852820802E-01      0.1072997297E+00
          0                14           2             2   13     1      -0.4454927994E-03       2   13    1        -0.2570935107E-01      0.3448167690E-01
          0                15           1             7    6     1       0.5637675853E-04       7    6    1         0.3114408955E-02      0.4010187223E-02
          0                16           1             7    6     1       0.1004779119E-04       7    6    1         0.5546249208E-03      0.6092707365E-03
          0                17           1             7    6     1       0.1792753323E-05       7    6    1         0.9887845272E-04      0.1065142597E-03

    ------------------------------------------------
       NWT REQUIRED           17 OUTER ITERATIONS 
       AND A TOTAL OF         31 INNER ITERATIONS.
    ------------------------------------------------

 NO OUTPUT CONTROL FOR STRESS PERIOD    8   TIME STEP   16
 
 SOLVING FOR HEAD 
                                                   Max.-Head-Change                         Max.-Flux-Residual
  Residual-Control   Outer-Iter.   Inner-Iter.     Column Row Layer    Maximum-Head-Change  Column Row Layer    Maximum-Flux-Residual          L2-NORM 
          0                 1           2             3   13     1      -0.2357577319E-01       3   13    1        -0.1257973937E+01      0.2463615122E+01
          0                 2           2             7    6     1      -0.2690303470E+00       7    6    1        -0.1478770134E+02      0.1479567540E+02
          0                 3           2             7    6     1       0.4136770748E-01       7    6    1         0.2300096864E+01      0.2308321296E+01
          0                 4           2             7    6     1       0.1768497694E-01       7    6    1         0.9824328900E+00      0.9858511134E+00
          0                 5           2             7    6     1       0.1958790137E-01       7    6    1         0.1087974981E+01      0.1089013489E+01
          0                 6           2             7    6     1       0.1943641007E-01       7    6    1         0.1079507999E+01      0.1080160036E+01
          0                 7           2             7    6     1       0.1944872495E-01       7    6    1         0.1080177498E+01      0.1080748658E+01
          0                 8           2             7    6     1       0.1944770156E-01       7    6    1         0.1080111141E+01      0.1080665744E+01
          0                 9           2             7    6     1       0.1944775659E-01       7    6    1         0.1080105658E+01      0.1080656374E+01
          0                10           2             7    6     1       0.1944772118E-01       7    6    1         0.1080095296E+01      0.1080644759E+01
                                                   Max.-Head-Change                         Max.-Flux-Residual
  Residual-Control   Outer-Iter.   Inner-Iter.     Column Row Layer    Maximum-Head-Change  Column Row Layer    Maximum-Flux-Residual          L2-NORM 
          0                11           2             7    6     1       0.1944769247E-01       7    6    1         0.1080085326E+01      0.1080634028E+01
          0                12           2             7    6     1       0.1944766319E-01       7    6    1         0.1080075324E+01      0.1080623380E+01
          0                13           2             7    6     1       0.1944763399E-01       7    6    1         0.1080065325E+01      0.1080612754E+01
          0                14           2             7    6     1       0.1944760480E-01       7    6    1         0.1080055326E+01      0.1080602135E+01
          0                15           2             7    6     1       0.1351934992E-01       7    6    1         0.7495589979E+00      0.7503387897E+00
          0                16           2             7    6     1       0.2396812393E-02       7    6    1         0.1327826804E+00      0.1370318775E+00
          0                17           2             2   13     1      -0.5029568015E-03       2   13    1        -0.2902545671E-01      0.4085860576E-01
          0                18           1             7    6     1       0.7558286212E-04       7    6    1         0.4180611788E-02      0.5118606093E-02
          0                19           1             7    6     1       0.1344423182E-04       7    6    1         0.7430283797E-03      0.8226023721E-03
          0                20           1             7    6     1       0.2394026337E-05       7    6    1         0.1322057353E-03      0.1438209620E-03

    ------------------------------------------------
       NWT REQUIRED           20 OUTER ITERATIONS 
       AND A TOTAL OF         37 INNER ITERATIONS.
    ------------------------------------------------

 NO OUTPUT CONTROL FOR STRESS PERIOD    8   TIME STEP   17
 
 SOLVING FOR HEAD 
                                                   Max.-Head-Change                         Max.-Flux-Residual
  Residual-Control   Outer-Iter.   Inner-Iter.     Column Row Layer    Maximum-Head-Change  Column Row Layer    Maximum-Flux-Residual          L2-NORM 
          0                 1           2             3   13     1      -0.2307064971E-01       3   13    1        -0.1230319550E+01      0.2431289718E+01
          0                 2           2             7    6     1      -0.2754400104E+00       7    6    1        -0.1513998173E+02      0.1514788771E+02
          0                 3           2             7    6     1       0.3560762690E-01       7    6    1         0.1980175958E+01      0.1989735981E+01
          0                 4           2             7    6     1       0.1180415351E-01       7    6    1         0.6558033956E+00      0.6601166432E+00
          0                 5           2             7    6     1       0.1371679939E-01       7    6    1         0.7618898835E+00      0.7627109505E+00
          0                 6           2             7    6     1       0.1356453326E-01       7    6    1         0.7533823951E+00      0.7536395043E+00
          0                 7           2             7    6     1       0.1357689024E-01       7    6    1         0.7540564902E+00      0.7541985552E+00
          0                 8           2             7    6     1       0.1357591366E-01       7    6    1         0.7539949335E+00      0.7541492236E+00
          0                 9           2             7    6     1       0.1357598104E-01       7    6    1         0.7539923267E+00      0.7544128072E+00
          0                10           2             7    6     1       0.1357596079E-01       7    6    1         0.7539849957E+00      0.7543834418E+00
                                                   Max.-Head-Change                         Max.-Flux-Residual
  Residual-Control   Outer-Iter.   Inner-Iter.     Column Row Layer    Maximum-Head-Change  Column Row Layer    Maximum-Flux-Residual          L2-NORM 
          0                11           2             7    6     1       0.1357594702E-01       7    6    1         0.7539780435E+00      0.7543771750E+00
          0                12           2             7    6     1       0.1357594987E-01       7    6    1         0.7539720148E+00      0.7543707385E+00
          0                13           2             7    6     1       0.1357593425E-01       7    6    1         0.7539649584E+00      0.7543633788E+00
          0                14           2             7    6     1       0.1357592013E-01       7    6    1         0.7539579846E+00      0.7543560888E+00
          0                15           2             7    6     1       0.1357590590E-01       7    6    1         0.7539510043E+00      0.7543488135E+00
          0                16           2             7    6     1       0.1357589168E-01       7    6    1         0.7539440247E+00      0.7543415070E+00
          0                17           2             7    6     1       0.1357587746E-01       7    6    1         0.7539370452E+00      0.7543342362E+00
          0                18           2             7    6     1       0.1357586324E-01       7    6    1         0.7539300658E+00      0.7543269307E+00
          0                19           2             7    6     1       0.1357584902E-01       7    6    1         0.7539230865E+00      0.7543196800E+00
          0                20           2             7    6     1       0.1360704292E-01       7    6    1         0.7544336745E+00      0.7548276708E+00
                                                   Max.-Head-Change                         Max.-Flux-Residual
  Residual-Control   Outer-Iter.   Inner-Iter.     Column Row Layer    Maximum-Head-Change  Column Row Layer    Maximum-Flux-Residual          L2-NORM 
          0                21           2             7    6     1       0.9637298541E-02       7    6    1         0.5342918063E+00      0.5348482465E+00
          0                22           2             7    6     1       0.1708151572E-02       7    6    1         0.9462517689E-01      0.9765144429E-01
          0                23           2             2   13     1      -0.3534948940E-03       2   13    1        -0.2077893182E-01      0.2910930437E-01
          0                24           2             2   13     1      -0.3532913102E-03       2   13    1        -0.2076424630E-01      0.2393061571E-01
          0                25           1             2   13     1      -0.1874215399E-03       2   13    1        -0.1101508849E-01      0.1263462330E-01
          0                26           1             2   13     1       0.1109413034E-04       2   13    1         0.6574695599E-03      0.9003002975E-03
          0                27           1             7   11     1      -0.6965753667E-06       7   11    1        -0.3701502374E-04      0.8793161544E-04

    ------------------------------------------------
       NWT REQUIRED           27 OUTER ITERATIONS 
       AND A TOTAL OF         51 INNER ITERATIONS.
    ------------------------------------------------

 NO OUTPUT CONTROL FOR STRESS PERIOD    8   TIME STEP   18
 
 SOLVING FOR HEAD 
                                                   Max.-Head-Change                         Max.-Flux-Residual
  Residual-Control   Outer-Iter.   Inner-Iter.     Column Row Layer    Maximum-Head-Change  Column Row Layer    Maximum-Flux-Residual          L2-NORM 
          0                 1           2             3   13     1      -0.2257134873E-01       3   13    1        -0.1203410295E+01      0.2401738278E+01
          0                 2           2             7    6     1      -0.2809612042E+00       7    6    1        -0.1544343352E+02      0.1545115377E+02
          0                 3           2             7    6     1       0.3064583371E-01       7    6    1         0.1704592522E+01      0.1715744450E+01
          0                 4           2             7    6     1       0.6738470015E-02       7    6    1         0.3744479620E+00      0.3818583585E+00
          0                 5           2             7    6     1       0.8659430550E-02       7    6    1         0.4810007233E+00      0.4822004706E+00
          0                 6           2             7    6     1       0.8506509297E-02       7    6    1         0.4724590013E+00      0.4727611138E+00
          0                 7           2             7    6     1       0.8518942311E-02       7    6    1         0.4731394776E+00      0.4732573637E+00
          0                 8           2             7    6     1       0.8517951118E-02       7    6    1         0.4730792409E+00      0.4731602137E+00
          0                 9           2             7    6     1       0.8518046102E-02       7    6    1         0.4730802911E+00      0.4731538255E+00
          0                10           2             7    6     1       0.8518032941E-02       7    6    1         0.4730754762E+00      0.4731475046E+00
                                                   Max.-Head-Change                         Max.-Flux-Residual
  Residual-Control   Outer-Iter.   Inner-Iter.     Column Row Layer    Maximum-Head-Change  Column Row Layer    Maximum-Flux-Residual          L2-NORM 
          0                11           2             7    6     1       0.8518027910E-02       7    6    1         0.4730711314E+00      0.4731428458E+00
          0                12           2             7    6     1       0.8518022204E-02       7    6    1         0.4730667490E+00      0.4731383980E+00
          0                13           2             7    6     1       0.8518016578E-02       7    6    1         0.4730623697E+00      0.4731339889E+00
          0                14           2             7    6     1       0.8518010965E-02       7    6    1         0.4730579903E+00      0.4731295993E+00
          0                15           2             7    6     1       0.8518005361E-02       7    6    1         0.4730536109E+00      0.4731252079E+00
          0                16           2             7    6     1       0.8517999760E-02       7    6    1         0.4730492316E+00      0.4731208200E+00
          0                17           2             7    6     1       0.8517994161E-02       7    6    1         0.4730448525E+00      0.4731164345E+00
          0                18           2             7    6     1       0.8517988563E-02       7    6    1         0.4730404734E+00      0.4731134071E+00
          0                19           2             7    6     1       0.8517982966E-02       7    6    1         0.4730360943E+00      0.4733083790E+00
          0                20           2             7    6     1       0.8517977368E-02       7    6    1         0.4730317154E+00      0.4732831987E+00
                                                   Max.-Head-Change                         Max.-Flux-Residual
  Residual-Control   Outer-Iter.   Inner-Iter.     Column Row Layer    Maximum-Head-Change  Column Row Layer    Maximum-Flux-Residual          L2-NORM 
          0                21           2             7    6     1       0.8517971770E-02       7    6    1         0.4730273365E+00      0.4732798889E+00
          0                22           2             7    6     1       0.8517966173E-02       7    6    1         0.4730229577E+00      0.4732753112E+00
          0                23           2             7    6     1       0.8517960575E-02       7    6    1         0.4730185790E+00      0.4732708182E+00
          0                24           2             7    6     1       0.8517954978E-02       7    6    1         0.4730142004E+00      0.4732663136E+00
          0                25           2             7    6     1       0.8517949381E-02       7    6    1         0.4730098219E+00      0.4732618177E+00
          0                26           2             7    6     1       0.8517943783E-02       7    6    1         0.4730054434E+00      0.4732573464E+00
          0                27           2             7    6     1       0.8517938186E-02       7    6    1         0.4730010650E+00      0.4732528316E+00
          0                28           2             7    6     1       0.8517932589E-02       7    6    1         0.4729966868E+00      0.4732483455E+00
          0                29           2             7    6     1       0.8517926992E-02       7    6    1         0.4729923085E+00      0.4732438405E+00
          0                30           2             7    6     1       0.8517921394E-02       7    6    1         0.4729879304E+00      0.4732393493E+00
                                                   Max.-Head-Change                         Max.-Flux-Residual
  Residual-Control   Outer-Iter.   Inner-Iter.     Column Row Layer    Maximum-Head-Change  Column Row Layer    Maximum-Flux-Residual          L2-NORM 
          0                31           2             7    6     1       0.8545626198E-02       7    6    1         0.4737645719E+00      0.4740127949E+00
          0                32           2             7    6     1       0.9057553461E-02       7    6    1         0.5021402877E+00      0.5023757405E+00
          0                33           2             7    6     1       0.4473344252E-02       7    6    1         0.2479504164E+00      0.2484295417E+00
          0                34           2             7    6     1       0.7925791725E-03       7    6    1         0.4389666387E-01      0.4643525028E-01
          0                35           2             2   13     1      -0.2231402981E-03       2   13    1        -0.1311657324E-01      0.1690027577E-01
          0                36           2             2   13     1      -0.2230911133E-03       2   13    1        -0.1311256935E-01      0.1505128128E-01
          0                37           2             2   13     1      -0.2229958326E-03       2   13    1        -0.1310584881E-01      0.1498415604E-01
          0                38           2             2   13     1      -0.2229219760E-03       2   13    1        -0.1310039105E-01      0.1497850302E-01
          0                39           2             2   13     1      -0.2228740525E-03       2   13    1        -0.1309645940E-01      0.1497640212E-01
          0                40           1             2   13     1      -0.1949542855E-04       2   13    1        -0.1146140974E-02      0.1419685224E-02
          0                41           1             2   13     1       0.1154442986E-05       2   13    1         0.6849334386E-04      0.1426852217E-03

    ------------------------------------------------
       NWT REQUIRED           41 OUTER ITERATIONS 
       AND A TOTAL OF         80 INNER ITERATIONS.
    ------------------------------------------------

 NO OUTPUT CONTROL FOR STRESS PERIOD    8   TIME STEP   19
 
 SOLVING FOR HEAD 
                                                   Max.-Head-Change                         Max.-Flux-Residual
  Residual-Control   Outer-Iter.   Inner-Iter.     Column Row Layer    Maximum-Head-Change  Column Row Layer    Maximum-Flux-Residual          L2-NORM 
          0                 1           2             3   13     1      -0.2207414978E-01       3   13    1        -0.1176622279E+01      0.2374220569E+01
          0                 2           2             7    6     1      -0.2857663304E+00       7    6    1        -0.1570753158E+02      0.1571509156E+02
          0                 3           2             7    6     1       0.2632756108E-01       7    6    1         0.1464750690E+01      0.1477781316E+01
          0                 4           2             7    6     1       0.2329774320E-02       7    6    1         0.1295822824E+00      0.1495629439E+00
          0                 5           2             7    6     1       0.4257959566E-02       7    6    1         0.2365398462E+00      0.2388728271E+00
          0                 6           2             7    6     1       0.4104476958E-02       7    6    1         0.2279699552E+00      0.2284836663E+00
          0                 7           2             7    6     1       0.4116958243E-02       7    6    1         0.2286552490E+00      0.2287860478E+00
          0                 8           2             7    6     1       0.4115985887E-02       7    6    1         0.2285980497E+00      0.2286522570E+00
          0                 9           2             7    6     1       0.4116050704E-02       7    6    1         0.2285993940E+00      0.2286382134E+00
          0                10           2             7    6     1       0.4116045732E-02       7    6    1         0.2285970002E+00      0.2286327214E+00
                                                   Max.-Head-Change                         Max.-Flux-Residual
  Residual-Control   Outer-Iter.   Inner-Iter.     Column Row Layer    Maximum-Head-Change  Column Row Layer    Maximum-Flux-Residual          L2-NORM 
          0                11           2             7    6     1       0.4116062268E-02       7    6    1         0.2285958506E+00      0.2286309469E+00
          0                12           2             7    6     1       0.4116059088E-02       7    6    1         0.2285936332E+00      0.2286286043E+00
          0                13           2             7    6     1       0.4116040726E-02       7    6    1         0.2285905714E+00      0.2286255063E+00
          0                14           2             7    6     1       0.4116040767E-02       7    6    1         0.2285885310E+00      0.2286234624E+00
          0                15           2             7    6     1       0.4116056512E-02       7    6    1         0.2285873625E+00      0.2286222874E+00
          0                16           2             7    6     1       0.4116053835E-02       7    6    1         0.2285851703E+00      0.2286200907E+00
          0                17           2             7    6     1       0.4116035468E-02       7    6    1         0.2285821067E+00      0.2286170233E+00
          0                18           2             7    6     1       0.4116035525E-02       7    6    1         0.2285800666E+00      0.2286149888E+00
          0                19           2             7    6     1       0.4116034108E-02       7    6    1         0.2285779445E+00      0.2286128530E+00
          0                20           2             7    6     1       0.4116032810E-02       7    6    1         0.2285758291E+00      0.2286107437E+00
                                                   Max.-Head-Change                         Max.-Flux-Residual
  Residual-Control   Outer-Iter.   Inner-Iter.     Column Row Layer    Maximum-Head-Change  Column Row Layer    Maximum-Flux-Residual          L2-NORM 
          0                21           2             7    6     1       0.4116031500E-02       7    6    1         0.2285737131E+00      0.2286086202E+00
          0                22           2             7    6     1       0.4116030194E-02       7    6    1         0.2285715972E+00      0.2286065033E+00
          0                23           2             7    6     1       0.4116028887E-02       7    6    1         0.2285694813E+00      0.2286043821E+00
          0                24           2             7    6     1       0.4116027579E-02       7    6    1         0.2285673655E+00      0.2286022603E+00
          0                25           2             7    6     1       0.4116026272E-02       7    6    1         0.2285652498E+00      0.2286001531E+00
          0                26           2             7    6     1       0.4116024964E-02       7    6    1         0.2285631340E+00      0.2285980282E+00
          0                27           2             7    6     1       0.4116023657E-02       7    6    1         0.2285610183E+00      0.2285959133E+00
          0                28           2             7    6     1       0.4116022350E-02       7    6    1         0.2285589027E+00      0.2285937878E+00
          0                29           2             7    6     1       0.4116021042E-02       7    6    1         0.2285567870E+00      0.2285916769E+00
          0                30           2             7    6     1       0.4116019735E-02       7    6    1         0.2285546715E+00      0.2285895588E+00
                                                   Max.-Head-Change                         Max.-Flux-Residual
  Residual-Control   Outer-Iter.   Inner-Iter.     Column Row Layer    Maximum-Head-Change  Column Row Layer    Maximum-Flux-Residual          L2-NORM 
          0                31           2             7    6     1       0.4116018428E-02       7    6    1         0.2285525559E+00      0.2285874495E+00
          0                32           2             7    6     1       0.4116017121E-02       7    6    1         0.2285504404E+00      0.2285853128E+00
          0                33           2             7    6     1       0.4116015813E-02       7    6    1         0.2285483250E+00      0.2285832073E+00
          0                34           2             7    6     1       0.4116014506E-02       7    6    1         0.2285462095E+00      0.2285810913E+00
          0                35           2             7    6     1       0.4116013199E-02       7    6    1         0.2285440942E+00      0.2285789688E+00
          0                36           2             7    6     1       0.4116011891E-02       7    6    1         0.2285419788E+00      0.2285768579E+00
          0                37           2             7    6     1       0.4116010583E-02       7    6    1         0.2285398635E+00      0.2285747338E+00
          0                38           2             7    6     1       0.4116009277E-02       7    6    1         0.2285377483E+00      0.2285726265E+00
          0                39           2             7    6     1       0.4116007969E-02       7    6    1         0.2285356330E+00      0.2285705048E+00
          0                40           2             7    6     1       0.4116006662E-02       7    6    1         0.2285335178E+00      0.2285683868E+00
                                                   Max.-Head-Change                         Max.-Flux-Residual
  Residual-Control   Outer-Iter.   Inner-Iter.     Column Row Layer    Maximum-Head-Change  Column Row Layer    Maximum-Flux-Residual          L2-NORM 
          0                41           2             7    6     1       0.4116005355E-02       7    6    1         0.2285314027E+00      0.2285662793E+00
          0                42           2             7    6     1       0.4116004047E-02       7    6    1         0.2285292876E+00      0.2285641526E+00
          0                43           2             7    6     1       0.4116002740E-02       7    6    1         0.2285271725E+00      0.2285620447E+00
          0                44           2             7    6     1       0.4116001433E-02       7    6    1         0.2285250575E+00      0.2285599244E+00
          0                45           2             7    6     1       0.4116000125E-02       7    6    1         0.2285229425E+00      0.2285578093E+00
          0                46           2             7    6     1       0.4115998818E-02       7    6    1         0.2285208275E+00      0.2285556998E+00
          0                47           2             7    6     1       0.4115997510E-02       7    6    1         0.2285187126E+00      0.2285535779E+00
          0                48           2             7    6     1       0.4115996204E-02       7    6    1         0.2285165978E+00      0.2285520399E+00
          0                49           2             7    6     1       0.4115994896E-02       7    6    1         0.2285144829E+00      0.2286471139E+00
          0                50           2             7    6     1       0.4115993589E-02       7    6    1         0.2285123681E+00      0.2286347910E+00
                                                   Max.-Head-Change                         Max.-Flux-Residual
  Residual-Control   Outer-Iter.   Inner-Iter.     Column Row Layer    Maximum-Head-Change  Column Row Layer    Maximum-Flux-Residual          L2-NORM 
          0                51           2             7    6     1       0.4115992281E-02       7    6    1         0.2285102534E+00      0.2286331933E+00
          0                52           2             7    6     1       0.4115990974E-02       7    6    1         0.2285081387E+00      0.2286310258E+00
          0                53           2             7    6     1       0.4115989667E-02       7    6    1         0.2285060240E+00      0.2286289139E+00
          0                54           2             7    6     1       0.4115988359E-02       7    6    1         0.2285039093E+00      0.2286267569E+00
          0                55           2             7    6     1       0.4115987052E-02       7    6    1         0.2285017947E+00      0.2286246231E+00
          0                56           2             7    6     1       0.4115985745E-02       7    6    1         0.2284996802E+00      0.2286225208E+00
          0                57           2             7    6     1       0.4115984438E-02       7    6    1         0.2284975657E+00      0.2286202814E+00
          0                58           2             7    6     1       0.4115983130E-02       7    6    1         0.2284954512E+00      0.2286181807E+00
          0                59           2             7    6     1       0.4115981823E-02       7    6    1         0.2284933367E+00      0.2286160471E+00
          0                60           2             7    6     1       0.4115980516E-02       7    6    1         0.2284912223E+00      0.2286139182E+00
                                                   Max.-Head-Change                         Max.-Flux-Residual
  Residual-Control   Outer-Iter.   Inner-Iter.     Column Row Layer    Maximum-Head-Change  Column Row Layer    Maximum-Flux-Residual          L2-NORM 
          0                61           2             7    6     1       0.4129366246E-02       7    6    1         0.2288661731E+00      0.2289873314E+00
          0                62           2             7    6     1       0.4122060648E-02       7    6    1         0.2284565388E+00      0.2285785821E+00
          0                63           2             7    6     1       0.4122658870E-02       7    6    1         0.2284873038E+00      0.2286094338E+00
          0                64           2             7    6     1       0.4475704070E-02       7    6    1         0.2480549417E+00      0.2481674521E+00
          0                65           2             7    6     1       0.5246333412E-02       7    6    1         0.2907665754E+00      0.2908632105E+00
          0                66           2             7    6     1       0.4482262525E-02       7    6    1         0.2484051179E+00      0.2485203457E+00
          0                67           2             7    6     1       0.7928636581E-03       7    6    1         0.4390539024E-01      0.4454357276E-01
          0                68           2             7    6     1       0.1404036953E-03       7    6    1         0.7768769133E-02      0.1066433871E-01
          0                69           1             2   13     1      -0.1084394523E-03       2   13    1        -0.6372921066E-02      0.7411276466E-02
          0                70           1             2   13     1      -0.1084139656E-03       2   13    1        -0.6371121769E-02      0.7284187494E-02
                                                   Max.-Head-Change                         Max.-Flux-Residual
  Residual-Control   Outer-Iter.   Inner-Iter.     Column Row Layer    Maximum-Head-Change  Column Row Layer    Maximum-Flux-Residual          L2-NORM 
          0                71           1             2   13     1      -0.1084143599E-03       2   13    1        -0.6370858056E-02      0.7279866508E-02
          0                72           1             2   13     1      -0.1083902430E-03       2   13    1        -0.6369146621E-02      0.7278497754E-02
          0                73           1             2   13     1      -0.1083700821E-03       2   13    1        -0.6367671681E-02      0.7277198222E-02
          0                74           1             2   13     1      -0.1083548256E-03       2   13    1        -0.6366480809E-02      0.7276527899E-02
          0                75           1             2   13     1      -0.1083411851E-03       2   13    1        -0.6365386397E-02      0.7275888052E-02
          0                76           1             2   13     1      -0.1083219466E-03       2   13    1        -0.6363964415E-02      0.7274683664E-02
          0                77           1             2   13     1      -0.1083157882E-03       2   13    1        -0.6363308577E-02      0.7274617778E-02
          0                78           1             2   13     1      -0.1082955998E-03       2   13    1        -0.6361831132E-02      0.7273409196E-02
          0                79           1             2   13     1      -0.1082653951E-03       2   13    1        -0.6359760269E-02      0.7271927414E-02
          0                80           1             2   13     1      -0.1082625183E-03       2   13    1        -0.6359305055E-02      0.7271916738E-02
                                                   Max.-Head-Change                         Max.-Flux-Residual
  Residual-Control   Outer-Iter.   Inner-Iter.     Column Row Layer    Maximum-Head-Change  Column Row Layer    Maximum-Flux-Residual          L2-NORM 
          0                81           1             2   13     1      -0.1079287228E-03       2   13    1        -0.6339395310E-02      0.7249875553E-02
          0                82           1             2   13     1       0.6439835862E-05       2   13    1         0.3814474267E-03      0.5028603087E-03

    ------------------------------------------------
       NWT REQUIRED           82 OUTER ITERATIONS 
       AND A TOTAL OF        150 INNER ITERATIONS.
    ------------------------------------------------

 NO OUTPUT CONTROL FOR STRESS PERIOD    8   TIME STEP   20
 
 SOLVING FOR HEAD 
                                                   Max.-Head-Change                         Max.-Flux-Residual
  Residual-Control   Outer-Iter.   Inner-Iter.     Column Row Layer    Maximum-Head-Change  Column Row Layer    Maximum-Flux-Residual          L2-NORM 
          0                 1           2             3   13     1      -0.2155948991E-01       3   13    1        -0.1148893508E+01      0.2347604166E+01
          0                 2           2             8    3     1       0.2849801215E-02       3   13    1         0.1148888619E+00      0.4884545381E+00
          0                 3           2             8    3     1       0.1279263921E-02       8    3    1         0.3325651122E-01      0.1726707546E+00
          0                 4           2             8    3     1       0.5742504801E-03       8    3    1         0.1492868516E-01      0.7433246499E-01
          0                 5           2             8    3     1       0.2577733298E-03       8    3    1         0.6701344912E-02      0.3309568706E-01
          0                 6           2             8    3     1       0.1157097340E-03       8    3    1         0.3008137924E-02      0.1481001276E-01
          0                 7           1             8    3     1       0.5193941611E-04       8    3    1         0.1350295443E-02      0.6632640832E-02
          0                 8           1             8    3     1       0.2331414305E-04       8    3    1         0.6061150995E-03      0.2970906057E-02
          0                 9           1             8    3     1       0.1046494794E-04       8    3    1         0.2720674765E-03      0.1330826874E-02
          0                10           1             8    3     1       0.4697316996E-05       8    3    1         0.1221218446E-03      0.5961742783E-03

    ------------------------------------------------
       NWT REQUIRED           10 OUTER ITERATIONS 
       AND A TOTAL OF         16 INNER ITERATIONS.
    ------------------------------------------------

 NO OUTPUT CONTROL FOR STRESS PERIOD    8   TIME STEP   21
 
 SOLVING FOR HEAD 
                                                   Max.-Head-Change                         Max.-Flux-Residual
  Residual-Control   Outer-Iter.   Inner-Iter.     Column Row Layer    Maximum-Head-Change  Column Row Layer    Maximum-Flux-Residual          L2-NORM 
          0                 1           2             7    6     1      -0.2885139790E+00       7    6    1        -0.1572458870E+02      0.1589370138E+02
          0                 2           2             7    6     1       0.3167093249E+00       7    6    1         0.1743440406E+02      0.1744093231E+02
          0                 3           2             7    6     1      -0.1820786831E-01       7    6    1        -0.1012193214E+01      0.1031533902E+01
          0                 4           2             7    6     1      -0.3217519551E-02       7    6    1        -0.1787045169E+00      0.1938136530E+00
          0                 5           2             7    6     1      -0.5692853645E-03       7    6    1        -0.3159296553E-01      0.4574009072E-01
          0                 6           2             8    3     1       0.1155350025E-03       7    6    1        -0.5592078823E-02      0.1581886665E-01
          0                 7           1             8    3     1       0.5186106557E-04       8    3    1         0.1348256737E-02      0.6700736047E-02
          0                 8           1             8    3     1       0.2327901383E-04       8    3    1         0.6052009476E-03      0.2973560809E-02
          0                 9           1             8    3     1       0.1044919907E-04       8    3    1         0.2716576194E-03      0.1330034071E-02
          0                10           1             8    3     1       0.4690257612E-05       8    3    1         0.1219381068E-03      0.5956792713E-03

    ------------------------------------------------
       NWT REQUIRED           10 OUTER ITERATIONS 
       AND A TOTAL OF         16 INNER ITERATIONS.
    ------------------------------------------------

 NO OUTPUT CONTROL FOR STRESS PERIOD    8   TIME STEP   22
 
 SOLVING FOR HEAD 
                                                   Max.-Head-Change                         Max.-Flux-Residual
  Residual-Control   Outer-Iter.   Inner-Iter.     Column Row Layer    Maximum-Head-Change  Column Row Layer    Maximum-Flux-Residual          L2-NORM 
          0                 1           2             7    6     1      -0.2887814789E+00       7    6    1        -0.1573917376E+02      0.1590532985E+02
          0                 2           2             7    6     1       0.3169984218E+00       7    6    1         0.1745033351E+02      0.1745682169E+02
          0                 3           2             7    6     1      -0.1822743442E-01       7    6    1        -0.1013280917E+01      0.1032574583E+01
          0                 4           2             7    6     1      -0.3220977377E-02       7    6    1        -0.1788965712E+00      0.1939591585E+00
          0                 5           2             7    6     1      -0.5698972191E-03       7    6    1        -0.3162692096E-01      0.4573655240E-01
          0                 6           2             8    3     1       0.1153622707E-03       7    6    1        -0.5598089488E-02      0.1580533240E-01
          0                 7           1             8    3     1       0.5178355366E-04       8    3    1         0.1346241123E-02      0.6693478646E-02
          0                 8           1             8    3     1       0.2324423238E-04       8    3    1         0.6042964684E-03      0.2970219404E-02
          0                 9           1             8    3     1       0.1043359177E-04       8    3    1         0.2712517531E-03      0.1328531066E-02
          0                10           1             8    3     1       0.4683254628E-05       8    3    1         0.1217559897E-03      0.5950056676E-03

    ------------------------------------------------
       NWT REQUIRED           10 OUTER ITERATIONS 
       AND A TOTAL OF         16 INNER ITERATIONS.
    ------------------------------------------------

 NO OUTPUT CONTROL FOR STRESS PERIOD    8   TIME STEP   23
 
 SOLVING FOR HEAD 
                                                   Max.-Head-Change                         Max.-Flux-Residual
  Residual-Control   Outer-Iter.   Inner-Iter.     Column Row Layer    Maximum-Head-Change  Column Row Layer    Maximum-Flux-Residual          L2-NORM 
          0                 1           2             7    6     1      -0.2887829890E+00       7    6    1        -0.1573927297E+02      0.1590280599E+02
          0                 2           2             7    6     1       0.3169977248E+00       7    6    1         0.1745030828E+02      0.1745676388E+02
          0                 3           2             7    6     1      -0.1822733606E-01       7    6    1        -0.1013276154E+01      0.1032536068E+01
          0                 4           2             7    6     1      -0.3220956838E-02       7    6    1        -0.1788955530E+00      0.1939265410E+00
          0                 5           2             7    6     1      -0.5698930437E-03       7    6    1        -0.3162671016E-01      0.4570963682E-01
          0                 6           2             8    3     1       0.1151888905E-03       7    6    1        -0.5598046909E-02      0.1578978561E-01
          0                 7           1             8    3     1       0.5170575712E-04       8    3    1         0.1344217965E-02      0.6686118668E-02
          0                 8           1             8    3     1       0.2320932551E-04       8    3    1         0.6033886703E-03      0.2966893026E-02
          0                 9           1             8    3     1       0.1041792981E-04       8    3    1         0.2708444285E-03      0.1327039149E-02
          0                10           1             8    3     1       0.4676226883E-05       8    3    1         0.1215732244E-03      0.5943373022E-03

    ------------------------------------------------
       NWT REQUIRED           10 OUTER ITERATIONS 
       AND A TOTAL OF         16 INNER ITERATIONS.
    ------------------------------------------------

 NO OUTPUT CONTROL FOR STRESS PERIOD    8   TIME STEP   24
 
 SOLVING FOR HEAD 
                                                   Max.-Head-Change                         Max.-Flux-Residual
  Residual-Control   Outer-Iter.   Inner-Iter.     Column Row Layer    Maximum-Head-Change  Column Row Layer    Maximum-Flux-Residual          L2-NORM 
          0                 1           2             7    6     1      -0.2887841979E+00       7    6    1        -0.1573935583E+02      0.1590042389E+02
          0                 2           2             7    6     1       0.3169970221E+00       7    6    1         0.1745028276E+02      0.1745670713E+02
          0                 3           2             7    6     1      -0.1822718448E-01       7    6    1        -0.1013268453E+01      0.1032495300E+01
          0                 4           2             7    6     1      -0.3220926797E-02       7    6    1        -0.1788940105E+00      0.1938939217E+00
          0                 5           2             7    6     1      -0.5698871714E-03       7    6    1        -0.3162640573E-01      0.4568306782E-01
          0                 6           2             8    3     1       0.1150163559E-03       7    6    1        -0.5597987589E-02      0.1577459128E-01
          0                 7           1             8    3     1       0.5162834325E-04       8    3    1         0.1342204696E-02      0.6678869317E-02
          0                 8           1             8    3     1       0.2317459109E-04       8    3    1         0.6024853427E-03      0.2963615591E-02
          0                 9           1             8    3     1       0.1040234577E-04       8    3    1         0.2704391327E-03      0.1325569002E-02
          0                10           1             8    3     1       0.4669235529E-05       8    3    1         0.1213913851E-03      0.5936786383E-03

    ------------------------------------------------
       NWT REQUIRED           10 OUTER ITERATIONS 
       AND A TOTAL OF         16 INNER ITERATIONS.
    ------------------------------------------------

 NO OUTPUT CONTROL FOR STRESS PERIOD    8   TIME STEP   25
 
 SOLVING FOR HEAD 
                                                   Max.-Head-Change                         Max.-Flux-Residual
  Residual-Control   Outer-Iter.   Inner-Iter.     Column Row Layer    Maximum-Head-Change  Column Row Layer    Maximum-Flux-Residual          L2-NORM 
          0                 1           2             7    6     1      -0.2887853561E+00       7    6    1        -0.1573943586E+02      0.1589819923E+02
          0                 2           2             7    6     1       0.3169963366E+00       7    6    1         0.1745025822E+02      0.1745665302E+02
          0                 3           2             7    6     1      -0.1822703923E-01       7    6    1        -0.1013261114E+01      0.1032455428E+01
          0                 4           2             7    6     1      -0.3220897831E-02       7    6    1        -0.1788925291E+00      0.1938618351E+00
          0                 5           2             7    6     1      -0.5698814820E-03       7    6    1        -0.3162611170E-01      0.4565685929E-01
          0                 6           2             8    3     1       0.1148431205E-03       7    6    1        -0.5597930068E-02      0.1575928020E-01
          0                 7           1             8    3     1       0.5155061437E-04       8    3    1         0.1340183246E-02      0.6671683015E-02
          0                 8           1             8    3     1       0.2313971636E-04       8    3    1         0.6015783518E-03      0.2960365781E-02
          0                 9           1             8    3     1       0.1038669857E-04       8    3    1         0.2700321846E-03      0.1324111445E-02
          0                10           1             8    3     1       0.4662214912E-05       8    3    1         0.1212088003E-03      0.5930264089E-03

    ------------------------------------------------
       NWT REQUIRED           10 OUTER ITERATIONS 
       AND A TOTAL OF         16 INNER ITERATIONS.
    ------------------------------------------------

 NO OUTPUT CONTROL FOR STRESS PERIOD    8   TIME STEP   26
 
 SOLVING FOR HEAD 
                                                   Max.-Head-Change                         Max.-Flux-Residual
  Residual-Control   Outer-Iter.   Inner-Iter.     Column Row Layer    Maximum-Head-Change  Column Row Layer    Maximum-Flux-Residual          L2-NORM 
          0                 1           2             7    6     1      -0.2887862376E+00       7    6    1        -0.1573950072E+02      0.1589609062E+02
          0                 2           2             7    6     1       0.3169956444E+00       7    6    1         0.1745023335E+02      0.1745659975E+02
          0                 3           2             7    6     1      -0.1822684483E-01       7    6    1        -0.1013251056E+01      0.1032413439E+01
          0                 4           2             7    6     1      -0.3220860112E-02       7    6    1        -0.1788905639E+00      0.1938293751E+00
          0                 5           2             7    6     1      -0.5698742337E-03       7    6    1        -0.3162573149E-01      0.4563067418E-01
          0                 6           2             8    3     1       0.1146721942E-03       7    6    1        -0.5597857174E-02      0.1574424689E-01
          0                 7           1             8    3     1       0.5147392082E-04       8    3    1         0.1338188736E-02      0.6664570430E-02
          0                 8           1             8    3     1       0.2310530495E-04       8    3    1         0.6006834253E-03      0.2957158515E-02
          0                 9           1             8    3     1       0.1037125884E-04       8    3    1         0.2696306466E-03      0.1322686557E-02
          0                10           1             8    3     1       0.4655287837E-05       8    3    1         0.1210286427E-03      0.5924177078E-03

    ------------------------------------------------
       NWT REQUIRED           10 OUTER ITERATIONS 
       AND A TOTAL OF         16 INNER ITERATIONS.
    ------------------------------------------------

 NO OUTPUT CONTROL FOR STRESS PERIOD    8   TIME STEP   27
 
 SOLVING FOR HEAD 
                                                   Max.-Head-Change                         Max.-Flux-Residual
  Residual-Control   Outer-Iter.   Inner-Iter.     Column Row Layer    Maximum-Head-Change  Column Row Layer    Maximum-Flux-Residual          L2-NORM 
          0                 1           2             7    6     1      -0.2887870911E+00       7    6    1        -0.1573956406E+02      0.1589411579E+02
          0                 2           2             7    6     1       0.3169949699E+00       7    6    1         0.1745020947E+02      0.1745654886E+02
          0                 3           2             7    6     1      -0.1822666030E-01       7    6    1        -0.1013241558E+01      0.1032372552E+01
          0                 4           2             7    6     1      -0.3220824088E-02       7    6    1        -0.1788886946E+00      0.1937974418E+00
          0                 5           2             7    6     1      -0.5698672762E-03       7    6    1        -0.3162536774E-01      0.4560484138E-01
          0                 6           2             8    3     1       0.1144991873E-03       7    6    1        -0.5597787111E-02      0.1572935920E-01
          0                 7           1             8    3     1       0.5139630373E-04       8    3    1         0.1336169992E-02      0.6657519839E-02
          0                 8           1             8    3     1       0.2307048399E-04       8    3    1         0.5997777511E-03      0.2953964008E-02
          0                 9           1             8    3     1       0.1035563778E-04       8    3    1         0.2692243412E-03      0.1321239186E-02
          0                10           1             8    3     1       0.4648280100E-05       8    3    1         0.1208463677E-03      0.5917385936E-03

    ------------------------------------------------
       NWT REQUIRED           10 OUTER ITERATIONS 
       AND A TOTAL OF         16 INNER ITERATIONS.
    ------------------------------------------------

 NO OUTPUT CONTROL FOR STRESS PERIOD    8   TIME STEP   28
 
 SOLVING FOR HEAD 
                                                   Max.-Head-Change                         Max.-Flux-Residual
  Residual-Control   Outer-Iter.   Inner-Iter.     Column Row Layer    Maximum-Head-Change  Column Row Layer    Maximum-Flux-Residual          L2-NORM 
          0                 1           2             7    6     1      -0.2887876919E+00       7    6    1        -0.1573961335E+02      0.1589223741E+02
          0                 2           2             7    6     1       0.3169942880E+00       7    6    1         0.1745018525E+02      0.1745649872E+02
          0                 3           2             7    6     1      -0.1822643087E-01       7    6    1        -0.1013229571E+01      0.1032329624E+01
          0                 4           2             7    6     1      -0.3220780094E-02       7    6    1        -0.1788863837E+00      0.1937654717E+00
          0                 5           2             7    6     1      -0.5698589036E-03       7    6    1        -0.3162492563E-01      0.4557924505E-01
          0                 6           2             8    3     1       0.1143284971E-03       7    6    1        -0.5597703145E-02      0.1571461443E-01
          0                 7           1             8    3     1       0.5131972311E-04       8    3    1         0.1334178271E-02      0.6650545910E-02
          0                 8           1             8    3     1       0.2303612661E-04       8    3    1         0.5988841643E-03      0.2950809084E-02
          0                 9           1             8    3     1       0.1034022356E-04       8    3    1         0.2688234398E-03      0.1319823683E-02
          0                10           1             8    3     1       0.4641365030E-05       8    3    1         0.1206665154E-03      0.5911042820E-03

    ------------------------------------------------
       NWT REQUIRED           10 OUTER ITERATIONS 
       AND A TOTAL OF         16 INNER ITERATIONS.
    ------------------------------------------------

 NO OUTPUT CONTROL FOR STRESS PERIOD    8   TIME STEP   29
 
 SOLVING FOR HEAD 
                                                   Max.-Head-Change                         Max.-Flux-Residual
  Residual-Control   Outer-Iter.   Inner-Iter.     Column Row Layer    Maximum-Head-Change  Column Row Layer    Maximum-Flux-Residual          L2-NORM 
          0                 1           2             7    6     1      -0.2887897098E+00       7    6    1        -0.1573966241E+02      0.1589123181E+02
          0                 2           2             7    6     1       0.3169931446E+00       7    6    1         0.1745015062E+02      0.1745643536E+02
          0                 3           2             7    6     1      -0.1822649471E-01       7    6    1        -0.1013231401E+01      0.1032282160E+01
          0                 4           2             7    6     1      -0.3220800126E-02       7    6    1        -0.1788871998E+00      0.1937334667E+00
          0                 5           2             7    6     1      -0.5698639643E-03       7    6    1        -0.3162515511E-01      0.4555357661E-01
          0                 6           2             8    3     1       0.1141586225E-03       7    6    1        -0.5597757881E-02      0.1569975831E-01
          0                 7           1             8    3     1       0.5124350789E-04       8    3    1         0.1332196070E-02      0.6643503243E-02
          0                 8           1             8    3     1       0.2300193281E-04       8    3    1         0.5979948398E-03      0.2947624312E-02
          0                 9           1             8    3     1       0.1032488313E-04       8    3    1         0.2684244493E-03      0.1318395084E-02
          0                10           1             8    3     1       0.4634482850E-05       8    3    1         0.1204875126E-03      0.5904642576E-03

    ------------------------------------------------
       NWT REQUIRED           10 OUTER ITERATIONS 
       AND A TOTAL OF         16 INNER ITERATIONS.
    ------------------------------------------------

 NO OUTPUT CONTROL FOR STRESS PERIOD    8   TIME STEP   30



 STREAM LISTING     PERIOD      8   STEP       30

 LAYER ROW COL. STREAM  RCH.  FLOW INTO     FLOW TO   FLOW OUT OF   OVRLND.     DIRECT     STREAM       STREAM     STREAM     STREAM   STREAMBED  STREAMBED
                SEG.NO.  NO.  STRM. RCH.    AQUIFER    STRM. RCH.    RUNOFF     PRECIP       ET          HEAD       DEPTH      WIDTH   CONDCTNC.   GRADIENT

   1    1    1     1     1    3.1164E+01  2.7180E-09   3.1164E+01  0.000E+00  0.000E+00  0.000E+00  1.09431E+03  1.259E+00  1.418E+01  6.381E-10  1.420E+00
   1    2    2     1     2    3.1164E+01  4.2234E-10   3.1164E+01  0.000E+00  0.000E+00  0.000E+00  1.08932E+03  1.259E+00  1.417E+01  9.917E-11  1.420E+00
   1    3    3     1     3    3.1164E+01  3.6217E-10   3.1164E+01  0.000E+00  0.000E+00  0.000E+00  1.08368E+03  1.259E+00  1.417E+01  8.504E-11  1.420E+00
   1    3    4     1     4    3.1164E+01  3.3507E-10   3.1164E+01  0.000E+00  0.000E+00  0.000E+00  1.07867E+03  1.259E+00  1.418E+01  7.867E-11  1.420E+00
   1    4    5     2     1    2.9164E+01  3.3695E-01   2.8827E+01  0.000E+00  0.000E+00  0.000E+00  1.07325E+03  1.320E+00  1.200E+01  7.800E-02  1.440E+00
   1    5    6     2     2    2.8827E+01  2.5871E-01   2.8569E+01  0.000E+00  0.000E+00  0.000E+00  1.06782E+03  1.312E+00  1.200E+01  6.000E-02  1.437E+00
   1    6    6     2     3    2.8569E+01  2.5828E-01   2.8310E+01  0.000E+00  0.000E+00  0.000E+00  1.06310E+03  1.305E+00  1.200E+01  6.000E-02  1.435E+00
   1    7    6     2     4    2.8310E+01  2.5785E-01   2.8053E+01  0.000E+00  0.000E+00  0.000E+00  1.05837E+03  1.298E+00  1.200E+01  6.000E-02  1.433E+00
   1    8    6     2     5    2.8053E+01  2.5742E-01   2.7795E+01  0.000E+00  0.000E+00  0.000E+00  1.05365E+03  1.290E+00  1.200E+01  6.000E-02  1.430E+00
   1    3    5     3     1    2.0000E+00  2.8252E-01   1.7175E+00  0.000E+00  0.000E+00  0.000E+00  1.07555E+03  1.909E+00  9.636E+00  7.227E-02  1.955E+00
   1    3    6     3     2    1.7175E+00  2.4905E-01   1.4684E+00  0.000E+00  0.000E+00  0.000E+00  1.07264E+03  1.727E+00  8.909E+00  6.682E-02  1.864E+00
   1    3    7     3     3    1.4684E+00  1.9718E-01   1.2712E+00  0.000E+00  0.000E+00  0.000E+00  1.06987E+03  1.555E+00  8.218E+00  5.547E-02  1.777E+00
   1    4    8     3     4    1.2712E+00  2.2567E-01   1.0456E+00  0.000E+00  0.000E+00  0.000E+00  1.06682E+03  1.364E+00  7.455E+00  6.709E-02  1.682E+00
   1    5    8     3     5    1.0456E+00  1.5790E-01   8.8768E-01  0.000E+00  0.000E+00  0.000E+00  1.06362E+03  1.164E+00  6.655E+00  4.991E-02  1.582E+00
   1    6    8     3     6    8.8768E-01  5.5980E-02   8.3170E-01  0.000E+00  0.000E+00  0.000E+00  1.06158E+03  1.036E+00  6.145E+00  1.844E-02  1.518E+00
   1    5   10     4     1    1.0000E+01  9.0919E-02   9.9091E+00  0.000E+00  0.000E+00  0.000E+00  1.07836E+03  6.368E-01  1.000E+01  2.500E-02  1.212E+00
   1    5    9     4     2    9.9091E+00  1.8158E-01   9.7275E+00  0.000E+00  0.000E+00  0.000E+00  1.07154E+03  6.315E-01  1.000E+01  5.000E-02  1.211E+00
   1    6    8     4     3    9.7275E+00  1.2689E-01   9.6006E+00  0.000E+00  0.000E+00  0.000E+00  1.06381E+03  6.256E-01  1.000E+01  3.500E-02  1.209E+00
   1    6    8     5     1    1.0432E+01  2.2686E-09   1.0432E+01  0.000E+00  0.000E+00  0.000E+00  1.05868E+03  6.790E-01  1.542E+01  6.166E-10  1.226E+00
   1    7    7     5     2    1.0432E+01  2.8306E-09   1.0432E+01  0.000E+00  0.000E+00  0.000E+00  1.05418E+03  6.784E-01  1.539E+01  7.695E-10  1.226E+00
   1    8    7     5     3    1.0432E+01  1.9868E-09   1.0432E+01  0.000E+00  0.000E+00  0.000E+00  1.04993E+03  6.794E-01  1.543E+01  5.400E-10  1.226E+00
   1    8    6     5     4    1.0432E+01  1.4217E-09   1.0432E+01  0.000E+00  0.000E+00  0.000E+00  1.04693E+03  6.800E-01  1.545E+01  3.863E-10  1.227E+00
   1    9    6     6     1    3.8227E+01  2.7432E-01   3.7953E+01  0.000E+00  0.000E+00  0.000E+00  1.04430E+03  1.572E+00  1.200E+01  6.000E-02  1.524E+00
   1   10    7     6     2    3.7953E+01  2.7391E-01   3.7679E+01  0.000E+00  0.000E+00  0.000E+00  1.03975E+03  1.565E+00  1.200E+01  6.000E-02  1.522E+00
   1   11    7     6     3    3.7679E+01  2.7351E-01   3.7406E+01  0.000E+00  0.000E+00  0.000E+00  1.03519E+03  1.558E+00  1.200E+01  6.000E-02  1.519E+00
   1   12    7     6     4    3.7406E+01  2.7310E-01   3.7133E+01  0.000E+00  0.000E+00  0.000E+00  1.03064E+03  1.552E+00  1.200E+01  6.000E-02  1.517E+00
   1   13    7     6     5    3.7133E+01  1.0912E-01   3.7024E+01  0.000E+00  0.000E+00  0.000E+00  1.02746E+03  1.547E+00  1.200E+01  2.400E-02  1.516E+00
   1   14    9     7     1    1.5000E+02  2.9539E-08   1.5000E+02  0.000E+00  0.000E+00  0.000E+00  1.03986E+03  2.283E+00  5.528E+01  5.591E-09  1.761E+00
   1   13    8     7     2    1.5000E+02  3.2486E-14   1.5000E+02  0.000E+00  0.000E+00  0.000E+00  1.03478E+03  2.283E+00  5.527E+01  6.150E-15  1.761E+00
   1   13    7     7     3    1.5000E+02  2.9539E-08   1.5000E+02  0.000E+00  0.000E+00  0.000E+00  1.02970E+03  2.283E+00  5.528E+01  5.591E-09  1.761E+00
   1   13    6     8     1    1.8702E+02  2.7284E-14   1.8702E+02  0.000E+00  0.000E+00  0.000E+00  1.02493E+03  3.051E+00  4.425E+01  4.509E-15  2.017E+00
   1   13    5     8     2    1.8702E+02  2.7284E-14   1.8702E+02  0.000E+00  0.000E+00  0.000E+00  1.01868E+03  3.051E+00  4.425E+01  4.509E-15  2.017E+00
   1   13    4     8     3    1.8702E+02  2.2464E-09   1.8702E+02  0.000E+00  0.000E+00  0.000E+00  1.01243E+03  3.053E+00  4.427E+01  4.511E-10  1.660E+00
   1   13    3     8     4    1.8702E+02  8.0610E-09   1.8702E+02  0.000E+00  0.000E+00  0.000E+00  1.00618E+03  3.057E+00  4.433E+01  4.517E-09  5.948E-01
   1   13    2     8     5    1.8702E+02  7.7749E-07   1.8702E+02  0.000E+00  0.000E+00  0.000E+00  9.99935E+02  3.060E+00  4.436E+01  4.521E-06  5.733E-02
   1   13    1     8     6    1.8702E+02 -3.4278E-01   1.8737E+02  0.000E+00  0.000E+00  0.000E+00  9.94936E+02  3.061E+00  4.438E+01  2.714E+00 -4.211E-02
   1    6    8     9     1    0.0000E+00  0.0000E+00   0.0000E+00  0.000E+00  0.000E+00  0.000E+00  1.07850E+03  0.000E+00  4.000E+00  0.000E+00  1.000E+00





UNSATURATED ZONE PACKAGE VOLUMETRIC BUDGET FOR  TIME STEP    30 STRESS PERIOD    8
  ------------------------------------------------------------------------------



     CUMULATIVE VOLUMES      L**3       RATES FOR THIS TIME STEP      L**3/T
     ------------------                 ------------------------

           IN:                                      IN:
           ---                                      ---
        INFILTRATION =    45403040.2766          INFILTRATION =           0.8475

          OUT:                                     OUT:
          ----                                     ----
              UZF ET =   550681515.2199                UZF ET =           4.8425
        UZF RECHARGE =   517820679.9987          UZF RECHARGE =          26.4011

            IN - OUT = -1023099154.9419              IN - OUT =         -30.3961

          STORAGE:                                 STORAGE:
          --------                                 --------
      STORAGE CHANGE = -1023092373.9056        STORAGE CHANGE =         -30.3961

 PERCENT DISCREPANCY IS DIFFERENCE BETWEEN IN-OUT MINUS CHANGE IN STORAGE
 DIVIDED BY THE AVERAGE OF IN AND OUT TIMES 100

 PERCENT DISCREPANCY =          -0.00     PERCENT DISCREPANCY =           0.00






1
  VOLUMETRIC BUDGET FOR ENTIRE MODEL AT END OF TIME STEP   30, STRESS PERIOD   8
  ------------------------------------------------------------------------------

     CUMULATIVE VOLUMES      L**3       RATES FOR THIS TIME STEP      L**3/T
     ------------------                 ------------------------

           IN:                                      IN:
           ---                                      ---
             STORAGE =    12419113.0000               STORAGE =           2.2747
       CONSTANT HEAD =           0.0000         CONSTANT HEAD =           0.0000
               WELLS =           0.0000                 WELLS =           0.0000
     HEAD DEP BOUNDS =    22202882.0000       HEAD DEP BOUNDS =           1.0379
      STREAM LEAKAGE =    84344592.0000        STREAM LEAKAGE =           4.1409
        UZF RECHARGE =   517820640.0000          UZF RECHARGE =          26.4011
               GW ET =           0.0000                 GW ET =           0.0000
     SURFACE LEAKAGE =           0.0000       SURFACE LEAKAGE =           0.0000

            TOTAL IN =   636787200.0000              TOTAL IN =          33.8546

          OUT:                                     OUT:
          ----                                     ----
             STORAGE =   557663488.0000               STORAGE =          27.2515
       CONSTANT HEAD =           0.0000         CONSTANT HEAD =           0.0000
               WELLS =           0.0000                 WELLS =           0.0000
     HEAD DEP BOUNDS =     6041590.0000       HEAD DEP BOUNDS =           0.2684
      STREAM LEAKAGE =    51565280.0000        STREAM LEAKAGE =           0.3428
        UZF RECHARGE =           0.0000          UZF RECHARGE =           0.0000
               GW ET =    21477408.0000                 GW ET =           5.9900
     SURFACE LEAKAGE =           0.0000       SURFACE LEAKAGE =           0.0000

           TOTAL OUT =   636747776.0000             TOTAL OUT =          33.8527

            IN - OUT =       39424.0000              IN - OUT =       1.9302E-03

 PERCENT DISCREPANCY =           0.01     PERCENT DISCREPANCY =           0.01






         TIME SUMMARY AT END OF TIME STEP   30 IN STRESS PERIOD    8
                    SECONDS     MINUTES      HOURS       DAYS        YEARS
                    -----------------------------------------------------------
   TIME STEP LENGTH  87600.      1460.0      24.333      1.0139     2.77588E-03
 STRESS PERIOD TIME 2.62800E+06  43800.      730.00      30.417     8.32763E-02
         TOTAL TIME 2.10240E+07 3.50400E+05  5840.0      243.33     0.66621    
1
1
                            STRESS PERIOD NO.    9, LENGTH =   2628000.    
                            -----------------------------------------------

                              NUMBER OF TIME STEPS =    30

                               MULTIPLIER FOR DELT =     1.000

                            INITIAL TIME STEP SIZE =   87600.00    

 WELL NO.  LAYER   ROW   COL   STRESS RATE         
 --------------------------------------------------
      1      1      6      4       0.000    
      2      1      6      7       0.000    
      3      1      7      4       0.000    
      4      1      7      5       0.000    
      5      1      8      4       0.000    
      6      1      8      5       0.000    
      7      1      9      4       0.000    
      8      1      9      5       0.000    
      9      1     10      4       0.000    
     10      1     10      5       0.000    

     10 WELLS

 REUSING NON-PARAMETER GHB CELLS FROM LAST STRESS PERIOD

      2 GHB CELLS

 REUSING STREAM SEGMENT DATA FROM LAST STRESS PERIOD



            AREAL INFILTRATION RATE
 READING ON UNIT   19 WITH FORMAT: (10F4.0)            

            1           2           3           4           5           6           7           8           9          10
 ........................................................................................................................
   1   1.0000E-10  2.0000E-10   0.000       0.000       0.000       0.000       0.000       0.000       0.000       0.000    
   2   2.0000E-10  1.0000E-10  2.0000E-10   0.000       0.000      8.0000E-10  8.0000E-10  5.0000E-10   0.000       0.000    
   3    0.000      5.0000E-10  1.0000E-10  1.0000E-10  8.0000E-10  8.0000E-10  5.0000E-10  5.0000E-10   0.000       0.000    
   4   8.0000E-10  5.0000E-10  1.0000E-10  1.0000E-10  1.0000E-10  1.0000E-10  1.0000E-10  1.0000E-10  2.0000E-10   0.000    
   5   8.0000E-10  5.0000E-10  1.0000E-10  1.0000E-10  1.0000E-10  1.0000E-10  1.0000E-10  1.0000E-10  1.0000E-10  1.0000E-10
   6   8.0000E-10  5.0000E-10  5.0000E-10  2.0000E-10  2.0000E-10  1.0000E-10  1.0000E-10  1.0000E-10  1.0000E-10  5.0000E-10
   7   8.0000E-10  5.0000E-10  5.0000E-10  2.0000E-10  2.0000E-10  1.0000E-10  1.0000E-10  2.0000E-10  2.0000E-10   0.000    
   8    0.000      5.0000E-10  5.0000E-10  2.0000E-10  2.0000E-10  1.0000E-10  1.0000E-10  2.0000E-10  5.0000E-10   0.000    
   9    0.000      5.0000E-10  5.0000E-10  2.0000E-10  2.0000E-10  1.0000E-10  1.0000E-10  2.0000E-10  5.0000E-10   0.000    
  10    0.000      5.0000E-10  5.0000E-10  2.0000E-10  2.0000E-10  1.0000E-10  1.0000E-10  2.0000E-10  5.0000E-10  8.0000E-10
  11    0.000      1.0000E-10  1.0000E-10  1.0000E-10  1.0000E-10  1.0000E-10  1.0000E-10  2.0000E-10  5.0000E-10   0.000    
  12   1.0000E-10  1.0000E-10  1.0000E-10  1.0000E-10  1.0000E-10  1.0000E-10  1.0000E-10  1.0000E-10  2.0000E-10   0.000    
  13   1.0000E-10  1.0000E-10  2.0000E-10  2.0000E-10  2.0000E-10  2.0000E-10  2.0000E-10  1.0000E-10  1.0000E-10   0.000    
  14    0.000      2.0000E-10  5.0000E-10  5.0000E-10  5.0000E-10  5.0000E-10  5.0000E-10  2.0000E-10  1.0000E-10   0.000    
  15    0.000       0.000      8.0000E-10  8.0000E-10  8.0000E-10  8.0000E-10   0.000       0.000       0.000       0.000    

                  ET RATE =  6.500000E-08

 USING ET EXTINCTION DEPTH FROM PREVIOUS STRESS PERIOD. CURRENT PERIOD IS:       9

 USING EXTINCTION WATER CONTENT FROM PREVIOUS STRESS PERIOD. CURRENT PERIOD IS:       9
 
 SOLVING FOR HEAD 
                                                   Max.-Head-Change                         Max.-Flux-Residual
  Residual-Control   Outer-Iter.   Inner-Iter.     Column Row Layer    Maximum-Head-Change  Column Row Layer    Maximum-Flux-Residual          L2-NORM 
          0                 1           2             7    6     1      -0.2887961577E+00       7    6    1        -0.1573980160E+02      0.1585437494E+02
          0                 2           2             7    6     1       0.3169910136E+00       7    6    1         0.1745009050E+02      0.1745600073E+02
          0                 3           2             7    6     1      -0.1822732476E-01       7    6    1        -0.1013270812E+01      0.1032190688E+01
          0                 4           2             7    6     1      -0.3220980110E-02       7    6    1        -0.1788960373E+00      0.1937022093E+00
          0                 5           2             7    6     1      -0.5699015507E-03       7    6    1        -0.3162704145E-01      0.4552838530E-01
          0                 6           2             8    3     1       0.1139540568E-03       7    6    1        -0.5598145706E-02      0.1568492393E-01
          0                 7           1             8    3     1       0.5114871343E-04       8    3    1         0.1329794327E-02      0.6636450384E-02
          0                 8           1             8    3     1       0.2295810222E-04       8    3    1         0.5968823568E-03      0.2944440478E-02
          0                 9           1             8    3     1       0.1030465790E-04       8    3    1         0.2679102603E-03      0.1316969647E-02
          0                10           1             8    3     1       0.4625167589E-05       8    3    1         0.1202503267E-03      0.5898270852E-03

    ------------------------------------------------
       NWT REQUIRED           10 OUTER ITERATIONS 
       AND A TOTAL OF         16 INNER ITERATIONS.
    ------------------------------------------------

 NO OUTPUT CONTROL FOR STRESS PERIOD    9   TIME STEP    1
 
 SOLVING FOR HEAD 
                                                   Max.-Head-Change                         Max.-Flux-Residual
  Residual-Control   Outer-Iter.   Inner-Iter.     Column Row Layer    Maximum-Head-Change  Column Row Layer    Maximum-Flux-Residual          L2-NORM 
          0                 1           2             7    6     1      -0.2888032853E+00       7    6    1        -0.1574020780E+02      0.1585417274E+02
          0                 2           2             7    6     1       0.3169901255E+00       7    6    1         0.1745005351E+02      0.1745594895E+02
          0                 3           2             7    6     1      -0.1822795774E-01       7    6    1        -0.1013306244E+01      0.1032194208E+01
          0                 4           2             7    6     1      -0.3221090945E-02       7    6    1        -0.1789022435E+00      0.1936782718E+00
          0                 5           2             7    6     1      -0.5699209559E-03       7    6    1        -0.3162812790E-01      0.4550414150E-01
          0                 6           2             8    3     1       0.1137724191E-03       7    6    1        -0.5598335826E-02      0.1567047501E-01
          0                 7           1             8    3     1       0.5106736044E-04       8    3    1         0.1327675533E-02      0.6629587257E-02
          0                 8           1             8    3     1       0.2292166517E-04       8    3    1         0.5959333728E-03      0.2941344393E-02
          0                 9           1             8    3     1       0.1028833815E-04       8    3    1         0.2674852234E-03      0.1315590645E-02
          0                10           1             8    3     1       0.4617858344E-05       8    3    1         0.1200599611E-03      0.5892267439E-03

    ------------------------------------------------
       NWT REQUIRED           10 OUTER ITERATIONS 
       AND A TOTAL OF         16 INNER ITERATIONS.
    ------------------------------------------------

 NO OUTPUT CONTROL FOR STRESS PERIOD    9   TIME STEP    2
 
 SOLVING FOR HEAD 
                                                   Max.-Head-Change                         Max.-Flux-Residual
  Residual-Control   Outer-Iter.   Inner-Iter.     Column Row Layer    Maximum-Head-Change  Column Row Layer    Maximum-Flux-Residual          L2-NORM 
          0                 1           2             7    6     1      -0.2888099743E+00       7    6    1        -0.1574059008E+02      0.1585398236E+02
          0                 2           2             7    6     1       0.3169892550E+00       7    6    1         0.1745001756E+02      0.1745589879E+02
          0                 3           2             7    6     1      -0.1822853522E-01       7    6    1        -0.1013338627E+01      0.1032195205E+01
          0                 4           2             7    6     1      -0.3221191804E-02       7    6    1        -0.1789079013E+00      0.1936540317E+00
          0                 5           2             7    6     1      -0.5699385690E-03       7    6    1        -0.3162911581E-01      0.4547996580E-01
          0                 6           2             8    3     1       0.1135913555E-03       7    6    1        -0.5598508260E-02      0.1565609108E-01
          0                 7           1             8    3     1       0.5098625881E-04       8    3    1         0.1325563402E-02      0.6622752809E-02
          0                 8           1             8    3     1       0.2288533867E-04       8    3    1         0.5949873162E-03      0.2938254221E-02
          0                 9           1             8    3     1       0.1027206718E-04       8    3    1         0.2670614706E-03      0.1314199120E-02
          0                10           1             8    3     1       0.4610570608E-05       8    3    1         0.1198701557E-03      0.5885877958E-03

    ------------------------------------------------
       NWT REQUIRED           10 OUTER ITERATIONS 
       AND A TOTAL OF         16 INNER ITERATIONS.
    ------------------------------------------------

 NO OUTPUT CONTROL FOR STRESS PERIOD    9   TIME STEP    3
 
 SOLVING FOR HEAD 
                                                   Max.-Head-Change                         Max.-Flux-Residual
  Residual-Control   Outer-Iter.   Inner-Iter.     Column Row Layer    Maximum-Head-Change  Column Row Layer    Maximum-Flux-Residual          L2-NORM 
          0                 1           2             7    6     1      -0.2888161333E+00       7    6    1        -0.1574094364E+02      0.1585378342E+02
          0                 2           2             7    6     1       0.3169883909E+00       7    6    1         0.1744998201E+02      0.1745584918E+02
          0                 3           2             7    6     1      -0.1822903247E-01       7    6    1        -0.1013366592E+01      0.1032192193E+01
          0                 4           2             7    6     1      -0.3221278285E-02       7    6    1        -0.1789127673E+00      0.1936293504E+00
          0                 5           2             7    6     1      -0.5699536068E-03       7    6    1        -0.3162996185E-01      0.4545592807E-01
          0                 6           2             8    3     1       0.1134117011E-03       7    6    1        -0.5598655303E-02      0.1564182927E-01
          0                 7           1             8    3     1       0.5090579083E-04       8    3    1         0.1323467723E-02      0.6615980042E-02
          0                 8           1             8    3     1       0.2284929642E-04       8    3    1         0.5940486439E-03      0.2935195178E-02
          0                 9           1             8    3     1       0.1025592389E-04       8    3    1         0.2666410349E-03      0.1312829097E-02
          0                10           1             8    3     1       0.4603339523E-05       8    3    1         0.1196818379E-03      0.5879749767E-03

    ------------------------------------------------
       NWT REQUIRED           10 OUTER ITERATIONS 
       AND A TOTAL OF         16 INNER ITERATIONS.
    ------------------------------------------------

 NO OUTPUT CONTROL FOR STRESS PERIOD    9   TIME STEP    4
 
 SOLVING FOR HEAD 
                                                   Max.-Head-Change                         Max.-Flux-Residual
  Residual-Control   Outer-Iter.   Inner-Iter.     Column Row Layer    Maximum-Head-Change  Column Row Layer    Maximum-Flux-Residual          L2-NORM 
          0                 1           2             7    6     1      -0.2888219092E+00       7    6    1        -0.1574127634E+02      0.1585359705E+02
          0                 2           2             7    6     1       0.3169875445E+00       7    6    1         0.1744994748E+02      0.1745580120E+02
          0                 3           2             7    6     1      -0.1822948286E-01       7    6    1        -0.1013391987E+01      0.1032187246E+01
          0                 4           2             7    6     1      -0.3221356325E-02       7    6    1        -0.1789171698E+00      0.1936045528E+00
          0                 5           2             7    6     1      -0.5699671267E-03       7    6    1        -0.3163072449E-01      0.4543205523E-01
          0                 6           2             8    3     1       0.1132334067E-03       7    6    1        -0.5598787352E-02      0.1562768224E-01
          0                 7           1             8    3     1       0.5082592987E-04       8    3    1         0.1321387898E-02      0.6609262577E-02
          0                 8           1             8    3     1       0.2281352604E-04       8    3    1         0.5931170656E-03      0.2932161126E-02
          0                 9           1             8    3     1       0.1023990177E-04       8    3    1         0.2662237685E-03      0.1311470161E-02
          0                10           1             8    3     1       0.4596163337E-05       8    3    1         0.1194949419E-03      0.5873670925E-03

    ------------------------------------------------
       NWT REQUIRED           10 OUTER ITERATIONS 
       AND A TOTAL OF         16 INNER ITERATIONS.
    ------------------------------------------------

 OUTPUT CONTROL FOR STRESS PERIOD    9   TIME STEP    5
    PRINT BUDGET
    SAVE BUDGET
 UBUDSV SAVING "         STORAGE" ON UNIT102 AT TIME STEP     5, STRESS PERIOD    9
 UBUDSV SAVING "   CONSTANT HEAD" ON UNIT102 AT TIME STEP     5, STRESS PERIOD    9
 UBUDSV SAVING "FLOW RIGHT FACE " ON UNIT102 AT TIME STEP     5, STRESS PERIOD    9
 UBUDSV SAVING "FLOW FRONT FACE " ON UNIT102 AT TIME STEP     5, STRESS PERIOD    9

  HEAD DEP BOUNDS   PERIOD    9   STEP     5
 BOUNDARY      1   LAYER   1   ROW    13   COL     1   RATE   -0.267734    
 BOUNDARY      2   LAYER   1   ROW    14   COL     9   RATE     1.03709    



 STREAM LISTING     PERIOD      9   STEP        5

 LAYER ROW COL. STREAM  RCH.  FLOW INTO     FLOW TO   FLOW OUT OF   OVRLND.     DIRECT     STREAM       STREAM     STREAM     STREAM   STREAMBED  STREAMBED
                SEG.NO.  NO.  STRM. RCH.    AQUIFER    STRM. RCH.    RUNOFF     PRECIP       ET          HEAD       DEPTH      WIDTH   CONDCTNC.   GRADIENT

   1    1    1     1     1    2.1000E+01  2.2592E-09   2.1000E+01  0.000E+00  0.000E+00  0.000E+00  1.09416E+03  1.115E+00  1.220E+01  5.490E-10  1.372E+00
   1    2    2     1     2    2.1000E+01  3.5093E-09   2.1000E+01  0.000E+00  0.000E+00  0.000E+00  1.08917E+03  1.114E+00  1.219E+01  8.530E-10  1.371E+00
   1    3    3     1     3    2.1000E+01  3.0097E-09   2.1000E+01  0.000E+00  0.000E+00  0.000E+00  1.08353E+03  1.115E+00  1.219E+01  7.315E-10  1.372E+00
   1    3    4     1     4    2.1000E+01  2.7847E-09   2.1000E+01  0.000E+00  0.000E+00  0.000E+00  1.07852E+03  1.115E+00  1.219E+01  6.768E-10  1.372E+00
   1    4    5     2     1    1.9000E+01  3.1349E-01   1.8687E+01  0.000E+00  0.000E+00  0.000E+00  1.07295E+03  1.019E+00  1.200E+01  7.800E-02  1.340E+00
   1    5    6     2     2    1.8687E+01  2.4061E-01   1.8446E+01  0.000E+00  0.000E+00  0.000E+00  1.06752E+03  1.010E+00  1.200E+01  6.000E-02  1.337E+00
   1    6    6     2     3    1.8446E+01  2.4014E-01   1.8206E+01  0.000E+00  0.000E+00  0.000E+00  1.06279E+03  1.002E+00  1.200E+01  6.000E-02  1.334E+00
   1    7    6     2     4    1.8206E+01  2.3966E-01   1.7966E+01  0.000E+00  0.000E+00  0.000E+00  1.05807E+03  9.944E-01  1.200E+01  6.000E-02  1.331E+00
   1    8    6     2     5    1.7966E+01  2.3919E-01   1.7727E+01  0.000E+00  0.000E+00  0.000E+00  1.05334E+03  9.865E-01  1.200E+01  6.000E-02  1.329E+00
   1    3    5     3     1    2.0000E+00  2.8252E-01   1.7175E+00  0.000E+00  0.000E+00  0.000E+00  1.07555E+03  1.909E+00  9.636E+00  7.227E-02  1.955E+00
   1    3    6     3     2    1.7175E+00  2.4905E-01   1.4684E+00  0.000E+00  0.000E+00  0.000E+00  1.07264E+03  1.727E+00  8.909E+00  6.682E-02  1.864E+00
   1    3    7     3     3    1.4684E+00  1.9718E-01   1.2712E+00  0.000E+00  0.000E+00  0.000E+00  1.06987E+03  1.555E+00  8.218E+00  5.547E-02  1.777E+00
   1    4    8     3     4    1.2712E+00  2.2567E-01   1.0456E+00  0.000E+00  0.000E+00  0.000E+00  1.06682E+03  1.364E+00  7.455E+00  6.709E-02  1.682E+00
   1    5    8     3     5    1.0456E+00  1.5790E-01   8.8768E-01  0.000E+00  0.000E+00  0.000E+00  1.06362E+03  1.164E+00  6.655E+00  4.991E-02  1.582E+00
   1    6    8     3     6    8.8768E-01  5.5980E-02   8.3170E-01  0.000E+00  0.000E+00  0.000E+00  1.06158E+03  1.036E+00  6.145E+00  1.844E-02  1.518E+00
   1    5   10     4     1    1.0000E+01  9.0919E-02   9.9091E+00  0.000E+00  0.000E+00  0.000E+00  1.07836E+03  6.368E-01  1.000E+01  2.500E-02  1.212E+00
   1    5    9     4     2    9.9091E+00  1.8158E-01   9.7275E+00  0.000E+00  0.000E+00  0.000E+00  1.07154E+03  6.315E-01  1.000E+01  5.000E-02  1.211E+00
   1    6    8     4     3    9.7275E+00  1.2689E-01   9.6006E+00  0.000E+00  0.000E+00  0.000E+00  1.06381E+03  6.256E-01  1.000E+01  3.500E-02  1.209E+00
   1    6    8     5     1    1.0432E+01  2.2686E-09   1.0432E+01  0.000E+00  0.000E+00  0.000E+00  1.05868E+03  6.790E-01  1.542E+01  6.166E-10  1.226E+00
   1    7    7     5     2    1.0432E+01  2.8306E-09   1.0432E+01  0.000E+00  0.000E+00  0.000E+00  1.05418E+03  6.784E-01  1.539E+01  7.695E-10  1.226E+00
   1    8    7     5     3    1.0432E+01  1.9868E-09   1.0432E+01  0.000E+00  0.000E+00  0.000E+00  1.04993E+03  6.794E-01  1.543E+01  5.400E-10  1.226E+00
   1    8    6     5     4    1.0432E+01  1.4217E-09   1.0432E+01  0.000E+00  0.000E+00  0.000E+00  1.04693E+03  6.800E-01  1.545E+01  3.863E-10  1.227E+00
   1    9    6     6     1    2.8159E+01  2.5847E-01   2.7901E+01  0.000E+00  0.000E+00  0.000E+00  1.04404E+03  1.308E+00  1.200E+01  6.000E-02  1.436E+00
   1   10    7     6     2    2.7901E+01  2.5803E-01   2.7643E+01  0.000E+00  0.000E+00  0.000E+00  1.03948E+03  1.301E+00  1.200E+01  6.000E-02  1.434E+00
   1   11    7     6     3    2.7643E+01  2.5760E-01   2.7385E+01  0.000E+00  0.000E+00  0.000E+00  1.03493E+03  1.293E+00  1.200E+01  6.000E-02  1.431E+00
   1   12    7     6     4    2.7385E+01  2.5716E-01   2.7128E+01  0.000E+00  0.000E+00  0.000E+00  1.03038E+03  1.286E+00  1.200E+01  6.000E-02  1.429E+00
   1   13    7     6     5    2.7128E+01  1.0274E-01   2.7025E+01  0.000E+00  0.000E+00  0.000E+00  1.02719E+03  1.281E+00  1.200E+01  2.400E-02  1.427E+00
   1   14    9     7     1    1.5000E+02  2.9539E-08   1.5000E+02  0.000E+00  0.000E+00  0.000E+00  1.03986E+03  2.283E+00  5.528E+01  5.591E-09  1.761E+00
   1   13    8     7     2    1.5000E+02  3.2486E-14   1.5000E+02  0.000E+00  0.000E+00  0.000E+00  1.03478E+03  2.283E+00  5.527E+01  6.150E-15  1.761E+00
   1   13    7     7     3    1.5000E+02  2.9539E-08   1.5000E+02  0.000E+00  0.000E+00  0.000E+00  1.02970E+03  2.283E+00  5.528E+01  5.591E-09  1.761E+00
   1   13    6     8     1    1.7703E+02  2.6450E-14   1.7703E+02  0.000E+00  0.000E+00  0.000E+00  1.02486E+03  2.989E+00  4.334E+01  4.416E-15  1.996E+00
   1   13    5     8     2    1.7703E+02  2.6450E-14   1.7703E+02  0.000E+00  0.000E+00  0.000E+00  1.01861E+03  2.989E+00  4.334E+01  4.416E-15  1.996E+00
   1   13    4     8     3    1.7703E+02  2.1765E-16   1.7703E+02  0.000E+00  0.000E+00  0.000E+00  1.01237E+03  2.990E+00  4.336E+01  4.419E-17  1.642E+00
   1   13    3     8     4    1.7703E+02  7.8129E-09   1.7703E+02  0.000E+00  0.000E+00  0.000E+00  1.00612E+03  2.995E+00  4.343E+01  4.425E-09  5.885E-01
   1   13    2     8     5    1.7703E+02  6.0266E-07   1.7703E+02  0.000E+00  0.000E+00  0.000E+00  9.99872E+02  2.997E+00  4.346E+01  4.429E-06  4.536E-02
   1   13    1     8     6    1.7703E+02 -4.5678E-01   1.7748E+02  0.000E+00  0.000E+00  0.000E+00  9.94874E+02  2.999E+00  4.348E+01  2.659E+00 -5.727E-02
   1    6    8     9     1    9.1271E-08  0.0000E+00   9.1271E-08  0.000E+00  0.000E+00  0.000E+00  1.07850E+03  8.248E-06  4.000E+00  0.000E+00  1.000E+00



 UBDSV3 SAVING "     NETRECHARGE" ON UNIT 100 AT TIME STEP     5, STRESS PERIOD   9
 UBDSV3 SAVING "    NETDISCHARGE" ON UNIT 101 AT TIME STEP     5, STRESS PERIOD   9
 UBDSV3 SAVING "           GW ET" ON UNIT  61 AT TIME STEP     5, STRESS PERIOD   9
 UBDSV3 SAVING "    UZF RECHARGE" ON UNIT  61 AT TIME STEP     5, STRESS PERIOD   9
 UBDSV3 SAVING " SURFACE LEAKAGE" ON UNIT  61 AT TIME STEP     5, STRESS PERIOD   9
 UBDSV3 SAVING "       HORT+DUNN" ON UNIT  61 AT TIME STEP     5, STRESS PERIOD   9
 UBDSV3 SAVING "  STORAGE CHANGE" ON UNIT  61 AT TIME STEP     5, STRESS PERIOD   9


UNSATURATED ZONE PACKAGE VOLUMETRIC BUDGET FOR  TIME STEP     5 STRESS PERIOD    9
  ------------------------------------------------------------------------------



     CUMULATIVE VOLUMES      L**3       RATES FOR THIS TIME STEP      L**3/T
     ------------------                 ------------------------

           IN:                                      IN:
           ---                                      ---
        INFILTRATION =    45774245.3166          INFILTRATION =           0.8475

          OUT:                                     OUT:
          ----                                     ----
              UZF ET =   552404943.5279                UZF ET =           3.9355
        UZF RECHARGE =   529346362.4752          UZF RECHARGE =          26.2944

            IN - OUT = -1035977060.6865              IN - OUT =         -29.3823

          STORAGE:                                 STORAGE:
          --------                                 --------
      STORAGE CHANGE = -1035970279.7383        STORAGE CHANGE =         -29.3823

 PERCENT DISCREPANCY IS DIFFERENCE BETWEEN IN-OUT MINUS CHANGE IN STORAGE
 DIVIDED BY THE AVERAGE OF IN AND OUT TIMES 100

 PERCENT DISCREPANCY =          -0.00     PERCENT DISCREPANCY =           0.00






1
  VOLUMETRIC BUDGET FOR ENTIRE MODEL AT END OF TIME STEP    5, STRESS PERIOD   9
  ------------------------------------------------------------------------------

     CUMULATIVE VOLUMES      L**3       RATES FOR THIS TIME STEP      L**3/T
     ------------------                 ------------------------

           IN:                                      IN:
           ---                                      ---
             STORAGE =    12963352.0000               STORAGE =           1.1999
       CONSTANT HEAD =           0.0000         CONSTANT HEAD =           0.0000
               WELLS =           0.0000                 WELLS =           0.0000
     HEAD DEP BOUNDS =    22657272.0000       HEAD DEP BOUNDS =           1.0371
      STREAM LEAKAGE =    86085552.0000        STREAM LEAKAGE =           3.9748
        UZF RECHARGE =   529346336.0000          UZF RECHARGE =          26.2944
               GW ET =           0.0000                 GW ET =           0.0000
     SURFACE LEAKAGE =           0.0000       SURFACE LEAKAGE =           0.0000

            TOTAL IN =   651052544.0000              TOTAL IN =          32.5061

          OUT:                                     OUT:
          ----                                     ----
             STORAGE =   569471488.0000               STORAGE =          26.9128
       CONSTANT HEAD =           0.0000         CONSTANT HEAD =           0.0000
               WELLS =           0.0000                 WELLS =           0.0000
     HEAD DEP BOUNDS =     6158962.5000       HEAD DEP BOUNDS =           0.2677
      STREAM LEAKAGE =    51772656.0000        STREAM LEAKAGE =           0.4568
        UZF RECHARGE =           0.0000          UZF RECHARGE =           0.0000
               GW ET =    23609096.0000                 GW ET =           4.8669
     SURFACE LEAKAGE =           0.0000       SURFACE LEAKAGE =           0.0000

           TOTAL OUT =   651012224.0000             TOTAL OUT =          32.5042

            IN - OUT =       40320.0000              IN - OUT =       1.9150E-03

 PERCENT DISCREPANCY =           0.01     PERCENT DISCREPANCY =           0.01






         TIME SUMMARY AT END OF TIME STEP    5 IN STRESS PERIOD    9
                    SECONDS     MINUTES      HOURS       DAYS        YEARS
                    -----------------------------------------------------------
   TIME STEP LENGTH  87600.      1460.0      24.333      1.0139     2.77588E-03
 STRESS PERIOD TIME 4.38000E+05  7300.0      121.67      5.0694     1.38794E-02
         TOTAL TIME 2.14620E+07 3.57700E+05  5961.7      248.40     0.68009    
1
 
 SOLVING FOR HEAD 
                                                   Max.-Head-Change                         Max.-Flux-Residual
  Residual-Control   Outer-Iter.   Inner-Iter.     Column Row Layer    Maximum-Head-Change  Column Row Layer    Maximum-Flux-Residual          L2-NORM 
          0                 1           2             7    6     1      -0.2888270953E+00       7    6    1        -0.1574157685E+02      0.1585340634E+02
          0                 2           2             7    6     1       0.3169866919E+00       7    6    1         0.1744991268E+02      0.1745575323E+02
          0                 3           2             7    6     1      -0.1822983411E-01       7    6    1        -0.1013411908E+01      0.1032177352E+01
          0                 4           2             7    6     1      -0.3221416675E-02       7    6    1        -0.1789205956E+00      0.1935791843E+00
          0                 5           2             7    6     1      -0.5699774885E-03       7    6    1        -0.3163131280E-01      0.4540832685E-01
          0                 6           2             8    3     1       0.1130564881E-03       7    6    1        -0.5598888296E-02      0.1561367390E-01
          0                 7           1             8    3     1       0.5074668669E-04       8    3    1         0.1319324139E-02      0.6602613776E-02
          0                 8           1             8    3     1       0.2277803240E-04       8    3    1         0.5921926894E-03      0.2929158037E-02
          0                 9           1             8    3     1       0.1022400371E-04       8    3    1         0.2658097343E-03      0.1310124985E-02
          0                10           1             8    3     1       0.4589042550E-05       8    3    1         0.1193094972E-03      0.5867653145E-03

    ------------------------------------------------
       NWT REQUIRED           10 OUTER ITERATIONS 
       AND A TOTAL OF         16 INNER ITERATIONS.
    ------------------------------------------------

 NO OUTPUT CONTROL FOR STRESS PERIOD    9   TIME STEP    6
 
 SOLVING FOR HEAD 
                                                   Max.-Head-Change                         Max.-Flux-Residual
  Residual-Control   Outer-Iter.   Inner-Iter.     Column Row Layer    Maximum-Head-Change  Column Row Layer    Maximum-Flux-Residual          L2-NORM 
          0                 1           2             7    6     1      -0.2888318455E+00       7    6    1        -0.1574185350E+02      0.1585321743E+02
          0                 2           2             7    6     1       0.3169858450E+00       7    6    1         0.1744987826E+02      0.1745570604E+02
          0                 3           2             7    6     1      -0.1823012095E-01       7    6    1        -0.1013428278E+01      0.1032164237E+01
          0                 4           2             7    6     1      -0.3221465506E-02       7    6    1        -0.1789233862E+00      0.1935533581E+00
          0                 5           2             7    6     1      -0.5699857918E-03       7    6    1        -0.3163178757E-01      0.4538461343E-01
          0                 6           2             8    3     1       0.1128793781E-03       7    6    1        -0.5598968944E-02      0.1559970579E-01
          0                 7           1             8    3     1       0.5066735347E-04       8    3    1         0.1317258111E-02      0.6595985912E-02
          0                 8           1             8    3     1       0.2274249650E-04       8    3    1         0.5912672498E-03      0.2926164408E-02
          0                 9           1             8    3     1       0.1020808677E-04       8    3    1         0.2653952020E-03      0.1308783994E-02
          0                10           1             8    3     1       0.4581912134E-05       8    3    1         0.1191238081E-03      0.5861653825E-03

    ------------------------------------------------
       NWT REQUIRED           10 OUTER ITERATIONS 
       AND A TOTAL OF         16 INNER ITERATIONS.
    ------------------------------------------------

 NO OUTPUT CONTROL FOR STRESS PERIOD    9   TIME STEP    7
 
 SOLVING FOR HEAD 
                                                   Max.-Head-Change                         Max.-Flux-Residual
  Residual-Control   Outer-Iter.   Inner-Iter.     Column Row Layer    Maximum-Head-Change  Column Row Layer    Maximum-Flux-Residual          L2-NORM 
          0                 1           2             7    6     1      -0.2888363037E+00       7    6    1        -0.1574211420E+02      0.1585302531E+02
          0                 2           2             7    6     1       0.3169850158E+00       7    6    1         0.1744984487E+02      0.1745565999E+02
          0                 3           2             7    6     1      -0.1823037587E-01       7    6    1        -0.1013442900E+01      0.1032149552E+01
          0                 4           2             7    6     1      -0.3221508570E-02       7    6    1        -0.1789258608E+00      0.1935274645E+00
          0                 5           2             7    6     1      -0.5699930553E-03       7    6    1        -0.3163220529E-01      0.4536106742E-01
          0                 6           2             8    3     1       0.1127036382E-03       7    6    1        -0.5599039305E-02      0.1558585351E-01
          0                 7           1             8    3     1       0.5058863615E-04       8    3    1         0.1315208088E-02      0.6589413828E-02
          0                 8           1             8    3     1       0.2270723747E-04       8    3    1         0.5903490032E-03      0.2923195970E-02
          0                 9           1             8    3     1       0.1019229338E-04       8    3    1         0.2649839039E-03      0.1307454246E-02
          0                10           1             8    3     1       0.4574838744E-05       8    3    1         0.1189395860E-03      0.5855704580E-03

    ------------------------------------------------
       NWT REQUIRED           10 OUTER ITERATIONS 
       AND A TOTAL OF         16 INNER ITERATIONS.
    ------------------------------------------------

 NO OUTPUT CONTROL FOR STRESS PERIOD    9   TIME STEP    8
 
 SOLVING FOR HEAD 
                                                   Max.-Head-Change                         Max.-Flux-Residual
  Residual-Control   Outer-Iter.   Inner-Iter.     Column Row Layer    Maximum-Head-Change  Column Row Layer    Maximum-Flux-Residual          L2-NORM 
          0                 1           2             7    6     1      -0.2888403723E+00       7    6    1        -0.1574235367E+02      0.1585276226E+02
          0                 2           2             7    6     1       0.3169841926E+00       7    6    1         0.1744981187E+02      0.1745561273E+02
          0                 3           2             7    6     1      -0.1823057344E-01       7    6    1        -0.1013454364E+01      0.1032131433E+01
          0                 4           2             7    6     1      -0.3221541360E-02       7    6    1        -0.1789277695E+00      0.1935011424E+00
          0                 5           2             7    6     1      -0.5699984777E-03       7    6    1        -0.3163252163E-01      0.4533755868E-01
          0                 6           2             8    3     1       0.1125292300E-03       7    6    1        -0.5599091514E-02      0.1557205228E-01
          0                 7           1             8    3     1       0.5051051421E-04       8    3    1         0.1313173589E-02      0.6582867072E-02
          0                 8           1             8    3     1       0.2267224506E-04       8    3    1         0.5894377042E-03      0.2920238760E-02
          0                 9           1             8    3     1       0.1017661943E-04       8    3    1         0.2645757119E-03      0.1306129416E-02
          0                10           1             8    3     1       0.4567818127E-05       8    3    1         0.1187567508E-03      0.5849776918E-03

    ------------------------------------------------
       NWT REQUIRED           10 OUTER ITERATIONS 
       AND A TOTAL OF         16 INNER ITERATIONS.
    ------------------------------------------------

 NO OUTPUT CONTROL FOR STRESS PERIOD    9   TIME STEP    9
 
 SOLVING FOR HEAD 
                                                   Max.-Head-Change                         Max.-Flux-Residual
  Residual-Control   Outer-Iter.   Inner-Iter.     Column Row Layer    Maximum-Head-Change  Column Row Layer    Maximum-Flux-Residual          L2-NORM 
          0                 1           2             7    6     1      -0.2888439604E+00       7    6    1        -0.1574256690E+02      0.1585256169E+02
          0                 2           2             7    6     1       0.3169833636E+00       7    6    1         0.1744977860E+02      0.1745556742E+02
          0                 3           2             7    6     1      -0.1823068969E-01       7    6    1        -0.1013461337E+01      0.1032110101E+01
          0                 4           2             7    6     1      -0.3221559646E-02       7    6    1        -0.1789288772E+00      0.1934744466E+00
          0                 5           2             7    6     1      -0.5700013139E-03       7    6    1        -0.3163269511E-01      0.4531415702E-01
          0                 6           2             8    3     1       0.1123560748E-03       7    6    1        -0.5599118244E-02      0.1555834974E-01
          0                 7           1             8    3     1       0.5043294815E-04       8    3    1         0.1311153676E-02      0.6576369438E-02
          0                 8           1             8    3     1       0.2263749888E-04       8    3    1         0.5885328706E-03      0.2917303859E-02
          0                 9           1             8    3     1       0.1016105464E-04       8    3    1         0.2641703879E-03      0.1304814525E-02
          0                10           1             8    3     1       0.4560846032E-05       8    3    1         0.1185751846E-03      0.5843893306E-03

    ------------------------------------------------
       NWT REQUIRED           10 OUTER ITERATIONS 
       AND A TOTAL OF         16 INNER ITERATIONS.
    ------------------------------------------------

 OUTPUT CONTROL FOR STRESS PERIOD    9   TIME STEP   10
    PRINT BUDGET
    SAVE BUDGET
 UBUDSV SAVING "         STORAGE" ON UNIT102 AT TIME STEP    10, STRESS PERIOD    9
 UBUDSV SAVING "   CONSTANT HEAD" ON UNIT102 AT TIME STEP    10, STRESS PERIOD    9
 UBUDSV SAVING "FLOW RIGHT FACE " ON UNIT102 AT TIME STEP    10, STRESS PERIOD    9
 UBUDSV SAVING "FLOW FRONT FACE " ON UNIT102 AT TIME STEP    10, STRESS PERIOD    9

  HEAD DEP BOUNDS   PERIOD    9   STEP    10
 BOUNDARY      1   LAYER   1   ROW    13   COL     1   RATE   -0.267225    
 BOUNDARY      2   LAYER   1   ROW    14   COL     9   RATE     1.03629    



 STREAM LISTING     PERIOD      9   STEP       10

 LAYER ROW COL. STREAM  RCH.  FLOW INTO     FLOW TO   FLOW OUT OF   OVRLND.     DIRECT     STREAM       STREAM     STREAM     STREAM   STREAMBED  STREAMBED
                SEG.NO.  NO.  STRM. RCH.    AQUIFER    STRM. RCH.    RUNOFF     PRECIP       ET          HEAD       DEPTH      WIDTH   CONDCTNC.   GRADIENT

   1    1    1     1     1    2.1000E+01  2.2592E-09   2.1000E+01  0.000E+00  0.000E+00  0.000E+00  1.09416E+03  1.115E+00  1.220E+01  5.490E-10  1.372E+00
   1    2    2     1     2    2.1000E+01  3.5093E-09   2.1000E+01  0.000E+00  0.000E+00  0.000E+00  1.08917E+03  1.114E+00  1.219E+01  8.530E-10  1.371E+00
   1    3    3     1     3    2.1000E+01  3.0097E-09   2.1000E+01  0.000E+00  0.000E+00  0.000E+00  1.08353E+03  1.115E+00  1.219E+01  7.315E-10  1.372E+00
   1    3    4     1     4    2.1000E+01  2.7847E-09   2.1000E+01  0.000E+00  0.000E+00  0.000E+00  1.07852E+03  1.115E+00  1.219E+01  6.768E-10  1.372E+00
   1    4    5     2     1    1.9000E+01  3.1349E-01   1.8687E+01  0.000E+00  0.000E+00  0.000E+00  1.07295E+03  1.019E+00  1.200E+01  7.800E-02  1.340E+00
   1    5    6     2     2    1.8687E+01  2.4061E-01   1.8446E+01  0.000E+00  0.000E+00  0.000E+00  1.06752E+03  1.010E+00  1.200E+01  6.000E-02  1.337E+00
   1    6    6     2     3    1.8446E+01  2.4014E-01   1.8206E+01  0.000E+00  0.000E+00  0.000E+00  1.06279E+03  1.002E+00  1.200E+01  6.000E-02  1.334E+00
   1    7    6     2     4    1.8206E+01  2.3966E-01   1.7966E+01  0.000E+00  0.000E+00  0.000E+00  1.05807E+03  9.944E-01  1.200E+01  6.000E-02  1.331E+00
   1    8    6     2     5    1.7966E+01  2.3919E-01   1.7727E+01  0.000E+00  0.000E+00  0.000E+00  1.05334E+03  9.865E-01  1.200E+01  6.000E-02  1.329E+00
   1    3    5     3     1    2.0000E+00  2.8252E-01   1.7175E+00  0.000E+00  0.000E+00  0.000E+00  1.07555E+03  1.909E+00  9.636E+00  7.227E-02  1.955E+00
   1    3    6     3     2    1.7175E+00  2.4905E-01   1.4684E+00  0.000E+00  0.000E+00  0.000E+00  1.07264E+03  1.727E+00  8.909E+00  6.682E-02  1.864E+00
   1    3    7     3     3    1.4684E+00  1.9718E-01   1.2712E+00  0.000E+00  0.000E+00  0.000E+00  1.06987E+03  1.555E+00  8.218E+00  5.547E-02  1.777E+00
   1    4    8     3     4    1.2712E+00  2.2567E-01   1.0456E+00  0.000E+00  0.000E+00  0.000E+00  1.06682E+03  1.364E+00  7.455E+00  6.709E-02  1.682E+00
   1    5    8     3     5    1.0456E+00  1.5790E-01   8.8768E-01  0.000E+00  0.000E+00  0.000E+00  1.06362E+03  1.164E+00  6.655E+00  4.991E-02  1.582E+00
   1    6    8     3     6    8.8768E-01  5.5980E-02   8.3170E-01  0.000E+00  0.000E+00  0.000E+00  1.06158E+03  1.036E+00  6.145E+00  1.844E-02  1.518E+00
   1    5   10     4     1    1.0000E+01  9.0919E-02   9.9091E+00  0.000E+00  0.000E+00  0.000E+00  1.07836E+03  6.368E-01  1.000E+01  2.500E-02  1.212E+00
   1    5    9     4     2    9.9091E+00  1.8158E-01   9.7275E+00  0.000E+00  0.000E+00  0.000E+00  1.07154E+03  6.315E-01  1.000E+01  5.000E-02  1.211E+00
   1    6    8     4     3    9.7275E+00  1.2689E-01   9.6006E+00  0.000E+00  0.000E+00  0.000E+00  1.06381E+03  6.256E-01  1.000E+01  3.500E-02  1.209E+00
   1    6    8     5     1    1.0432E+01  2.2686E-09   1.0432E+01  0.000E+00  0.000E+00  0.000E+00  1.05868E+03  6.790E-01  1.542E+01  6.166E-10  1.226E+00
   1    7    7     5     2    1.0432E+01  2.8306E-09   1.0432E+01  0.000E+00  0.000E+00  0.000E+00  1.05418E+03  6.784E-01  1.539E+01  7.695E-10  1.226E+00
   1    8    7     5     3    1.0432E+01  1.9868E-09   1.0432E+01  0.000E+00  0.000E+00  0.000E+00  1.04993E+03  6.794E-01  1.543E+01  5.400E-10  1.226E+00
   1    8    6     5     4    1.0432E+01  1.4217E-09   1.0432E+01  0.000E+00  0.000E+00  0.000E+00  1.04693E+03  6.800E-01  1.545E+01  3.863E-10  1.227E+00
   1    9    6     6     1    2.8159E+01  2.5847E-01   2.7901E+01  0.000E+00  0.000E+00  0.000E+00  1.04404E+03  1.308E+00  1.200E+01  6.000E-02  1.436E+00
   1   10    7     6     2    2.7901E+01  2.5803E-01   2.7643E+01  0.000E+00  0.000E+00  0.000E+00  1.03948E+03  1.301E+00  1.200E+01  6.000E-02  1.434E+00
   1   11    7     6     3    2.7643E+01  2.5760E-01   2.7385E+01  0.000E+00  0.000E+00  0.000E+00  1.03493E+03  1.293E+00  1.200E+01  6.000E-02  1.431E+00
   1   12    7     6     4    2.7385E+01  2.5716E-01   2.7128E+01  0.000E+00  0.000E+00  0.000E+00  1.03038E+03  1.286E+00  1.200E+01  6.000E-02  1.429E+00
   1   13    7     6     5    2.7128E+01  1.0274E-01   2.7025E+01  0.000E+00  0.000E+00  0.000E+00  1.02719E+03  1.281E+00  1.200E+01  2.400E-02  1.427E+00
   1   14    9     7     1    1.5000E+02  2.9539E-08   1.5000E+02  0.000E+00  0.000E+00  0.000E+00  1.03986E+03  2.283E+00  5.528E+01  5.591E-09  1.761E+00
   1   13    8     7     2    1.5000E+02  3.2486E-14   1.5000E+02  0.000E+00  0.000E+00  0.000E+00  1.03478E+03  2.283E+00  5.527E+01  6.150E-15  1.761E+00
   1   13    7     7     3    1.5000E+02  2.9539E-08   1.5000E+02  0.000E+00  0.000E+00  0.000E+00  1.02970E+03  2.283E+00  5.528E+01  5.591E-09  1.761E+00
   1   13    6     8     1    1.7703E+02  2.6450E-14   1.7703E+02  0.000E+00  0.000E+00  0.000E+00  1.02486E+03  2.989E+00  4.334E+01  4.416E-15  1.996E+00
   1   13    5     8     2    1.7703E+02  2.6450E-14   1.7703E+02  0.000E+00  0.000E+00  0.000E+00  1.01861E+03  2.989E+00  4.334E+01  4.416E-15  1.996E+00
   1   13    4     8     3    1.7703E+02  2.1797E-15   1.7703E+02  0.000E+00  0.000E+00  0.000E+00  1.01237E+03  2.990E+00  4.336E+01  4.419E-16  1.644E+00
   1   13    3     8     4    1.7703E+02  7.9855E-12   1.7703E+02  0.000E+00  0.000E+00  0.000E+00  1.00612E+03  2.995E+00  4.343E+01  4.425E-12  6.015E-01
   1   13    2     8     5    1.7703E+02  7.1913E-07   1.7703E+02  0.000E+00  0.000E+00  0.000E+00  9.99872E+02  2.997E+00  4.346E+01  4.429E-06  5.413E-02
   1   13    1     8     6    1.7703E+02 -4.2145E-01   1.7745E+02  0.000E+00  0.000E+00  0.000E+00  9.94874E+02  2.999E+00  4.348E+01  2.659E+00 -5.284E-02
   1    6    8     9     1    9.1271E-08  0.0000E+00   9.1271E-08  0.000E+00  0.000E+00  0.000E+00  1.07850E+03  8.248E-06  4.000E+00  0.000E+00  1.000E+00



 UBDSV3 SAVING "     NETRECHARGE" ON UNIT 100 AT TIME STEP    10, STRESS PERIOD   9
 UBDSV3 SAVING "    NETDISCHARGE" ON UNIT 101 AT TIME STEP    10, STRESS PERIOD   9
 UBDSV3 SAVING "           GW ET" ON UNIT  61 AT TIME STEP    10, STRESS PERIOD   9
 UBDSV3 SAVING "    UZF RECHARGE" ON UNIT  61 AT TIME STEP    10, STRESS PERIOD   9
 UBDSV3 SAVING " SURFACE LEAKAGE" ON UNIT  61 AT TIME STEP    10, STRESS PERIOD   9
 UBDSV3 SAVING "       HORT+DUNN" ON UNIT  61 AT TIME STEP    10, STRESS PERIOD   9
 UBDSV3 SAVING "  STORAGE CHANGE" ON UNIT  61 AT TIME STEP    10, STRESS PERIOD   9


UNSATURATED ZONE PACKAGE VOLUMETRIC BUDGET FOR  TIME STEP    10 STRESS PERIOD    9
  ------------------------------------------------------------------------------



     CUMULATIVE VOLUMES      L**3       RATES FOR THIS TIME STEP      L**3/T
     ------------------                 ------------------------

           IN:                                      IN:
           ---                                      ---
        INFILTRATION =    46145450.3566          INFILTRATION =           0.8475

          OUT:                                     OUT:
          ----                                     ----
              UZF ET =   554134140.3723                UZF ET =           3.9606
        UZF RECHARGE =   540848398.7280          UZF RECHARGE =          26.2345

            IN - OUT = -1048837088.7438              IN - OUT =         -29.3477

          STORAGE:                                 STORAGE:
          --------                                 --------
      STORAGE CHANGE = -1048830307.8175        STORAGE CHANGE =         -29.3477

 PERCENT DISCREPANCY IS DIFFERENCE BETWEEN IN-OUT MINUS CHANGE IN STORAGE
 DIVIDED BY THE AVERAGE OF IN AND OUT TIMES 100

 PERCENT DISCREPANCY =          -0.00     PERCENT DISCREPANCY =           0.00






1
  VOLUMETRIC BUDGET FOR ENTIRE MODEL AT END OF TIME STEP   10, STRESS PERIOD   9
  ------------------------------------------------------------------------------

     CUMULATIVE VOLUMES      L**3       RATES FOR THIS TIME STEP      L**3/T
     ------------------                 ------------------------

           IN:                                      IN:
           ---                                      ---
             STORAGE =    13463832.0000               STORAGE =           1.1051
       CONSTANT HEAD =           0.0000         CONSTANT HEAD =           0.0000
               WELLS =           0.0000                 WELLS =           0.0000
     HEAD DEP BOUNDS =    23111312.0000       HEAD DEP BOUNDS =           1.0363
      STREAM LEAKAGE =    87826512.0000        STREAM LEAKAGE =           3.9748
        UZF RECHARGE =   540848384.0000          UZF RECHARGE =          26.2345
               GW ET =           0.0000                 GW ET =           0.0000
     SURFACE LEAKAGE =           0.0000       SURFACE LEAKAGE =           0.0000

            TOTAL IN =   665250048.0000              TOTAL IN =          32.3507

          OUT:                                     OUT:
          ----                                     ----
             STORAGE =   581228928.0000               STORAGE =          26.7937
       CONSTANT HEAD =           0.0000         CONSTANT HEAD =           0.0000
               WELLS =           0.0000                 WELLS =           0.0000
     HEAD DEP BOUNDS =     6276092.5000       HEAD DEP BOUNDS =           0.2672
      STREAM LEAKAGE =    51963192.0000        STREAM LEAKAGE =           0.4215
        UZF RECHARGE =           0.0000          UZF RECHARGE =           0.0000
               GW ET =    25740670.0000                 GW ET =           4.8664
     SURFACE LEAKAGE =           0.0000       SURFACE LEAKAGE =           0.0000

           TOTAL OUT =   665208896.0000             TOTAL OUT =          32.3488

            IN - OUT =       41152.0000              IN - OUT =       1.9035E-03

 PERCENT DISCREPANCY =           0.01     PERCENT DISCREPANCY =           0.01






         TIME SUMMARY AT END OF TIME STEP   10 IN STRESS PERIOD    9
                    SECONDS     MINUTES      HOURS       DAYS        YEARS
                    -----------------------------------------------------------
   TIME STEP LENGTH  87600.      1460.0      24.333      1.0139     2.77588E-03
 STRESS PERIOD TIME 8.76000E+05  14600.      243.33      10.139     2.77588E-02
         TOTAL TIME 2.19000E+07 3.65000E+05  6083.3      253.47     0.69397    
1
 
 SOLVING FOR HEAD 
                                                   Max.-Head-Change                         Max.-Flux-Residual
  Residual-Control   Outer-Iter.   Inner-Iter.     Column Row Layer    Maximum-Head-Change  Column Row Layer    Maximum-Flux-Residual          L2-NORM 
          0                 1           2             7    6     1      -0.2888473289E+00       7    6    1        -0.1574276819E+02      0.1585236634E+02
          0                 2           2             7    6     1       0.3169825530E+00       7    6    1         0.1744974638E+02      0.1745552344E+02
          0                 3           2             7    6     1      -0.1823078578E-01       7    6    1        -0.1013467213E+01      0.1032088112E+01
          0                 4           2             7    6     1      -0.3221574256E-02       7    6    1        -0.1789297845E+00      0.1934479029E+00
          0                 5           2             7    6     1      -0.5700034811E-03       7    6    1        -0.3163283211E-01      0.4529100590E-01
          0                 6           2             8    3     1       0.1121828470E-03       7    6    1        -0.5599138364E-02      0.1554479948E-01
          0                 7           1             8    3     1       0.5035535920E-04       8    3    1         0.1309132971E-02      0.6569943709E-02
          0                 8           1             8    3     1       0.2260274645E-04       8    3    1         0.5876277889E-03      0.2914401146E-02
          0                 9           1             8    3     1       0.1014548923E-04       8    3    1         0.2637650023E-03      0.1303513991E-02
          0                10           1             8    3     1       0.4553873936E-05       8    3    1         0.1183936119E-03      0.5838074320E-03

    ------------------------------------------------
       NWT REQUIRED           10 OUTER ITERATIONS 
       AND A TOTAL OF         16 INNER ITERATIONS.
    ------------------------------------------------

 NO OUTPUT CONTROL FOR STRESS PERIOD    9   TIME STEP   11
 
 SOLVING FOR HEAD 
                                                   Max.-Head-Change                         Max.-Flux-Residual
  Residual-Control   Outer-Iter.   Inner-Iter.     Column Row Layer    Maximum-Head-Change  Column Row Layer    Maximum-Flux-Residual          L2-NORM 
          0                 1           2             7    6     1      -0.2888503805E+00       7    6    1        -0.1574295193E+02      0.1585217367E+02
          0                 2           2             7    6     1       0.3169817472E+00       7    6    1         0.1744971452E+02      0.1745548001E+02
          0                 3           2             7    6     1      -0.1823083673E-01       7    6    1        -0.1013470597E+01      0.1032063940E+01
          0                 4           2             7    6     1      -0.3221580809E-02       7    6    1        -0.1789302470E+00      0.1934211171E+00
          0                 5           2             7    6     1      -0.5700042090E-03       7    6    1        -0.3163288968E-01      0.4526791576E-01
          0                 6           2             8    3     1       0.1120108789E-03       7    6    1        -0.5599144303E-02      0.1553130614E-01
          0                 7           1             8    3     1       0.5027832863E-04       8    3    1         0.1307126933E-02      0.6563546001E-02
          0                 8           1             8    3     1       0.2256824226E-04       8    3    1         0.5867292205E-03      0.2911511166E-02
          0                 9           1             8    3     1       0.1013003374E-04       8    3    1         0.2633625043E-03      0.1302219105E-02
          0                10           1             8    3     1       0.4546951238E-05       8    3    1         0.1182133205E-03      0.5832279070E-03

    ------------------------------------------------
       NWT REQUIRED           10 OUTER ITERATIONS 
       AND A TOTAL OF         16 INNER ITERATIONS.
    ------------------------------------------------

 NO OUTPUT CONTROL FOR STRESS PERIOD    9   TIME STEP   12
 
 SOLVING FOR HEAD 
                                                   Max.-Head-Change                         Max.-Flux-Residual
  Residual-Control   Outer-Iter.   Inner-Iter.     Column Row Layer    Maximum-Head-Change  Column Row Layer    Maximum-Flux-Residual          L2-NORM 
          0                 1           2             7    6     1      -0.2888531355E+00       7    6    1        -0.1574311955E+02      0.1585197973E+02
          0                 2           2             7    6     1       0.3169809481E+00       7    6    1         0.1744968305E+02      0.1745543724E+02
          0                 3           2             7    6     1      -0.1823084546E-01       7    6    1        -0.1013471659E+01      0.1032037728E+01
          0                 4           2             7    6     1      -0.3221579790E-02       7    6    1        -0.1789302928E+00      0.1933941460E+00
          0                 5           2             7    6     1      -0.5700035817E-03       7    6    1        -0.3163287257E-01      0.4524493759E-01
          0                 6           2             8    3     1       0.1118402028E-03       7    6    1        -0.5599136830E-02      0.1551789629E-01
          0                 7           1             8    3     1       0.5020187593E-04       8    3    1         0.1305135952E-02      0.6557192524E-02
          0                 8           1             8    3     1       0.2253399618E-04       8    3    1         0.5858373781E-03      0.2908648913E-02
          0                 9           1             8    3     1       0.1011469356E-04       8    3    1         0.2629630094E-03      0.1300932308E-02
          0                10           1             8    3     1       0.4540079437E-05       8    3    1         0.1180343701E-03      0.5826952163E-03

    ------------------------------------------------
       NWT REQUIRED           10 OUTER ITERATIONS 
       AND A TOTAL OF         16 INNER ITERATIONS.
    ------------------------------------------------

 NO OUTPUT CONTROL FOR STRESS PERIOD    9   TIME STEP   13
 
 SOLVING FOR HEAD 
                                                   Max.-Head-Change                         Max.-Flux-Residual
  Residual-Control   Outer-Iter.   Inner-Iter.     Column Row Layer    Maximum-Head-Change  Column Row Layer    Maximum-Flux-Residual          L2-NORM 
          0                 1           2             7    6     1      -0.2888556119E+00       7    6    1        -0.1574327198E+02      0.1585177432E+02
          0                 2           2             7    6     1       0.3169801554E+00       7    6    1         0.1744965198E+02      0.1745539488E+02
          0                 3           2             7    6     1      -0.1823081497E-01       7    6    1        -0.1013470562E+01      0.1032009637E+01
          0                 4           2             7    6     1      -0.3221571734E-02       7    6    1        -0.1789299512E+00      0.1933670016E+00
          0                 5           2             7    6     1      -0.5700016912E-03       7    6    1        -0.3163278598E-01      0.4522205999E-01
          0                 6           2             8    3     1       0.1116692914E-03       7    6    1        -0.5599116942E-02      0.1550456596E-01
          0                 7           1             8    3     1       0.5012531632E-04       8    3    1         0.1303142230E-02      0.6550870062E-02
          0                 8           1             8    3     1       0.2249970095E-04       8    3    1         0.5849442875E-03      0.2905784877E-02
          0                 9           1             8    3     1       0.1009933124E-04       8    3    1         0.2625629544E-03      0.1299653183E-02
          0                10           1             8    3     1       0.4533198257E-05       8    3    1         0.1178551679E-03      0.5820795730E-03

    ------------------------------------------------
       NWT REQUIRED           10 OUTER ITERATIONS 
       AND A TOTAL OF         16 INNER ITERATIONS.
    ------------------------------------------------

 NO OUTPUT CONTROL FOR STRESS PERIOD    9   TIME STEP   14
 
 SOLVING FOR HEAD 
                                                   Max.-Head-Change                         Max.-Flux-Residual
  Residual-Control   Outer-Iter.   Inner-Iter.     Column Row Layer    Maximum-Head-Change  Column Row Layer    Maximum-Flux-Residual          L2-NORM 
          0                 1           2             7    6     1      -0.2888578290E+00       7    6    1        -0.1574341016E+02      0.1585157165E+02
          0                 2           2             7    6     1       0.3169793685E+00       7    6    1         0.1744962128E+02      0.1745535320E+02
          0                 3           2             7    6     1      -0.1823074838E-01       7    6    1        -0.1013467476E+01      0.1031979933E+01
          0                 4           2             7    6     1      -0.3221557217E-02       7    6    1        -0.1789292536E+00      0.1933397622E+00
          0                 5           2             7    6     1      -0.5699986446E-03       7    6    1        -0.3163263568E-01      0.4519931195E-01
          0                 6           2             8    3     1       0.1114996784E-03       7    6    1        -0.5599085660E-02      0.1549132898E-01
          0                 7           1             8    3     1       0.5004933846E-04       8    3    1         0.1301163649E-02      0.6544596444E-02
          0                 8           1             8    3     1       0.2246566747E-04       8    3    1         0.5840579981E-03      0.2902950742E-02
          0                 9           1             8    3     1       0.1008408634E-04       8    3    1         0.2621659487E-03      0.1298383185E-02
          0                10           1             8    3     1       0.4526369475E-05       8    3    1         0.1176773319E-03      0.5815111815E-03

    ------------------------------------------------
       NWT REQUIRED           10 OUTER ITERATIONS 
       AND A TOTAL OF         16 INNER ITERATIONS.
    ------------------------------------------------

 OUTPUT CONTROL FOR STRESS PERIOD    9   TIME STEP   15
    PRINT BUDGET
    PRINT HEAD FOR ALL LAYERS
    SAVE HEAD FOR ALL LAYERS
    SAVE BUDGET
 UBUDSV SAVING "         STORAGE" ON UNIT102 AT TIME STEP    15, STRESS PERIOD    9
 UBUDSV SAVING "   CONSTANT HEAD" ON UNIT102 AT TIME STEP    15, STRESS PERIOD    9
 UBUDSV SAVING "FLOW RIGHT FACE " ON UNIT102 AT TIME STEP    15, STRESS PERIOD    9
 UBUDSV SAVING "FLOW FRONT FACE " ON UNIT102 AT TIME STEP    15, STRESS PERIOD    9

  HEAD DEP BOUNDS   PERIOD    9   STEP    15
 BOUNDARY      1   LAYER   1   ROW    13   COL     1   RATE   -0.266807    
 BOUNDARY      2   LAYER   1   ROW    14   COL     9   RATE     1.03549    



 STREAM LISTING     PERIOD      9   STEP       15

 LAYER ROW COL. STREAM  RCH.  FLOW INTO     FLOW TO   FLOW OUT OF   OVRLND.     DIRECT     STREAM       STREAM     STREAM     STREAM   STREAMBED  STREAMBED
                SEG.NO.  NO.  STRM. RCH.    AQUIFER    STRM. RCH.    RUNOFF     PRECIP       ET          HEAD       DEPTH      WIDTH   CONDCTNC.   GRADIENT

   1    1    1     1     1    2.1000E+01  2.2592E-09   2.1000E+01  0.000E+00  0.000E+00  0.000E+00  1.09416E+03  1.115E+00  1.220E+01  5.490E-10  1.372E+00
   1    2    2     1     2    2.1000E+01  3.5093E-09   2.1000E+01  0.000E+00  0.000E+00  0.000E+00  1.08917E+03  1.114E+00  1.219E+01  8.530E-10  1.371E+00
   1    3    3     1     3    2.1000E+01  3.0097E-09   2.1000E+01  0.000E+00  0.000E+00  0.000E+00  1.08353E+03  1.115E+00  1.219E+01  7.315E-10  1.372E+00
   1    3    4     1     4    2.1000E+01  2.7847E-09   2.1000E+01  0.000E+00  0.000E+00  0.000E+00  1.07852E+03  1.115E+00  1.219E+01  6.768E-10  1.372E+00
   1    4    5     2     1    1.9000E+01  3.1349E-01   1.8687E+01  0.000E+00  0.000E+00  0.000E+00  1.07295E+03  1.019E+00  1.200E+01  7.800E-02  1.340E+00
   1    5    6     2     2    1.8687E+01  2.4061E-01   1.8446E+01  0.000E+00  0.000E+00  0.000E+00  1.06752E+03  1.010E+00  1.200E+01  6.000E-02  1.337E+00
   1    6    6     2     3    1.8446E+01  2.4014E-01   1.8206E+01  0.000E+00  0.000E+00  0.000E+00  1.06279E+03  1.002E+00  1.200E+01  6.000E-02  1.334E+00
   1    7    6     2     4    1.8206E+01  2.3966E-01   1.7966E+01  0.000E+00  0.000E+00  0.000E+00  1.05807E+03  9.944E-01  1.200E+01  6.000E-02  1.331E+00
   1    8    6     2     5    1.7966E+01  2.3919E-01   1.7727E+01  0.000E+00  0.000E+00  0.000E+00  1.05334E+03  9.865E-01  1.200E+01  6.000E-02  1.329E+00
   1    3    5     3     1    2.0000E+00  2.8252E-01   1.7175E+00  0.000E+00  0.000E+00  0.000E+00  1.07555E+03  1.909E+00  9.636E+00  7.227E-02  1.955E+00
   1    3    6     3     2    1.7175E+00  2.4905E-01   1.4684E+00  0.000E+00  0.000E+00  0.000E+00  1.07264E+03  1.727E+00  8.909E+00  6.682E-02  1.864E+00
   1    3    7     3     3    1.4684E+00  1.9718E-01   1.2712E+00  0.000E+00  0.000E+00  0.000E+00  1.06987E+03  1.555E+00  8.218E+00  5.547E-02  1.777E+00
   1    4    8     3     4    1.2712E+00  2.2567E-01   1.0456E+00  0.000E+00  0.000E+00  0.000E+00  1.06682E+03  1.364E+00  7.455E+00  6.709E-02  1.682E+00
   1    5    8     3     5    1.0456E+00  1.5790E-01   8.8768E-01  0.000E+00  0.000E+00  0.000E+00  1.06362E+03  1.164E+00  6.655E+00  4.991E-02  1.582E+00
   1    6    8     3     6    8.8768E-01  5.5980E-02   8.3170E-01  0.000E+00  0.000E+00  0.000E+00  1.06158E+03  1.036E+00  6.145E+00  1.844E-02  1.518E+00
   1    5   10     4     1    1.0000E+01  9.0919E-02   9.9091E+00  0.000E+00  0.000E+00  0.000E+00  1.07836E+03  6.368E-01  1.000E+01  2.500E-02  1.212E+00
   1    5    9     4     2    9.9091E+00  1.8158E-01   9.7275E+00  0.000E+00  0.000E+00  0.000E+00  1.07154E+03  6.315E-01  1.000E+01  5.000E-02  1.211E+00
   1    6    8     4     3    9.7275E+00  1.2689E-01   9.6006E+00  0.000E+00  0.000E+00  0.000E+00  1.06381E+03  6.256E-01  1.000E+01  3.500E-02  1.209E+00
   1    6    8     5     1    1.0432E+01  2.2686E-09   1.0432E+01  0.000E+00  0.000E+00  0.000E+00  1.05868E+03  6.790E-01  1.542E+01  6.166E-10  1.226E+00
   1    7    7     5     2    1.0432E+01  2.8306E-09   1.0432E+01  0.000E+00  0.000E+00  0.000E+00  1.05418E+03  6.784E-01  1.539E+01  7.695E-10  1.226E+00
   1    8    7     5     3    1.0432E+01  1.9868E-09   1.0432E+01  0.000E+00  0.000E+00  0.000E+00  1.04993E+03  6.794E-01  1.543E+01  5.400E-10  1.226E+00
   1    8    6     5     4    1.0432E+01  1.4217E-09   1.0432E+01  0.000E+00  0.000E+00  0.000E+00  1.04693E+03  6.800E-01  1.545E+01  3.863E-10  1.227E+00
   1    9    6     6     1    2.8159E+01  2.5847E-01   2.7901E+01  0.000E+00  0.000E+00  0.000E+00  1.04404E+03  1.308E+00  1.200E+01  6.000E-02  1.436E+00
   1   10    7     6     2    2.7901E+01  2.5803E-01   2.7643E+01  0.000E+00  0.000E+00  0.000E+00  1.03948E+03  1.301E+00  1.200E+01  6.000E-02  1.434E+00
   1   11    7     6     3    2.7643E+01  2.5760E-01   2.7385E+01  0.000E+00  0.000E+00  0.000E+00  1.03493E+03  1.293E+00  1.200E+01  6.000E-02  1.431E+00
   1   12    7     6     4    2.7385E+01  2.5716E-01   2.7128E+01  0.000E+00  0.000E+00  0.000E+00  1.03038E+03  1.286E+00  1.200E+01  6.000E-02  1.429E+00
   1   13    7     6     5    2.7128E+01  1.0274E-01   2.7025E+01  0.000E+00  0.000E+00  0.000E+00  1.02719E+03  1.281E+00  1.200E+01  2.400E-02  1.427E+00
   1   14    9     7     1    1.5000E+02  2.9539E-08   1.5000E+02  0.000E+00  0.000E+00  0.000E+00  1.03986E+03  2.283E+00  5.528E+01  5.591E-09  1.761E+00
   1   13    8     7     2    1.5000E+02  3.2486E-14   1.5000E+02  0.000E+00  0.000E+00  0.000E+00  1.03478E+03  2.283E+00  5.527E+01  6.150E-15  1.761E+00
   1   13    7     7     3    1.5000E+02  2.9539E-08   1.5000E+02  0.000E+00  0.000E+00  0.000E+00  1.02970E+03  2.283E+00  5.528E+01  5.591E-09  1.761E+00
   1   13    6     8     1    1.7703E+02  2.6450E-14   1.7703E+02  0.000E+00  0.000E+00  0.000E+00  1.02486E+03  2.989E+00  4.334E+01  4.416E-15  1.996E+00
   1   13    5     8     2    1.7703E+02  2.6450E-14   1.7703E+02  0.000E+00  0.000E+00  0.000E+00  1.01861E+03  2.989E+00  4.334E+01  4.416E-15  1.996E+00
   1   13    4     8     3    1.7703E+02  2.1825E-09   1.7703E+02  0.000E+00  0.000E+00  0.000E+00  1.01237E+03  2.990E+00  4.336E+01  4.419E-10  1.646E+00
   1   13    3     8     4    1.7703E+02  8.1411E-09   1.7703E+02  0.000E+00  0.000E+00  0.000E+00  1.00612E+03  2.995E+00  4.342E+01  4.425E-09  6.133E-01
   1   13    2     8     5    1.7703E+02  8.3403E-07   1.7703E+02  0.000E+00  0.000E+00  0.000E+00  9.99872E+02  2.997E+00  4.346E+01  4.429E-06  6.278E-02
   1   13    1     8     6    1.7703E+02 -3.9244E-01   1.7742E+02  0.000E+00  0.000E+00  0.000E+00  9.94874E+02  2.999E+00  4.348E+01  2.658E+00 -4.921E-02
   1    6    8     9     1    9.1271E-08  0.0000E+00   9.1271E-08  0.000E+00  0.000E+00  0.000E+00  1.07850E+03  8.248E-06  4.000E+00  0.000E+00  1.000E+00



 UBDSV3 SAVING "     NETRECHARGE" ON UNIT 100 AT TIME STEP    15, STRESS PERIOD   9
 UBDSV3 SAVING "    NETDISCHARGE" ON UNIT 101 AT TIME STEP    15, STRESS PERIOD   9
 UBDSV3 SAVING "           GW ET" ON UNIT  61 AT TIME STEP    15, STRESS PERIOD   9
 UBDSV3 SAVING "    UZF RECHARGE" ON UNIT  61 AT TIME STEP    15, STRESS PERIOD   9
 UBDSV3 SAVING " SURFACE LEAKAGE" ON UNIT  61 AT TIME STEP    15, STRESS PERIOD   9
 UBDSV3 SAVING "       HORT+DUNN" ON UNIT  61 AT TIME STEP    15, STRESS PERIOD   9
 UBDSV3 SAVING "  STORAGE CHANGE" ON UNIT  61 AT TIME STEP    15, STRESS PERIOD   9


UNSATURATED ZONE PACKAGE VOLUMETRIC BUDGET FOR  TIME STEP    15 STRESS PERIOD    9
  ------------------------------------------------------------------------------



     CUMULATIVE VOLUMES      L**3       RATES FOR THIS TIME STEP      L**3/T
     ------------------                 ------------------------

           IN:                                      IN:
           ---                                      ---
        INFILTRATION =    46516655.3965          INFILTRATION =           0.8475

          OUT:                                     OUT:
          ----                                     ----
              UZF ET =   555873700.1961                UZF ET =           3.9660
        UZF RECHARGE =   552327493.8624          UZF RECHARGE =          26.1904

            IN - OUT = -1061684538.6620              IN - OUT =         -29.3089

          STORAGE:                                 STORAGE:
          --------                                 --------
      STORAGE CHANGE = -1061677757.7361        STORAGE CHANGE =         -29.3089

 PERCENT DISCREPANCY IS DIFFERENCE BETWEEN IN-OUT MINUS CHANGE IN STORAGE
 DIVIDED BY THE AVERAGE OF IN AND OUT TIMES 100

 PERCENT DISCREPANCY =          -0.00     PERCENT DISCREPANCY =           0.00






1
              HEAD IN LAYER   1 AT END OF TIME STEP    15 IN STRESS PERIOD    9
  -----------------------------------------------------------------------------

           1       2       3       4       5       6       7       8       9      10
 ...................................................................................
   1  1012.19 1012.02 6999.00 6999.00 6999.00 6999.00 6999.00 6999.00 6999.00 6999.00
   2  1013.56 1011.86 1011.83 6999.00 6999.00 1014.08 1014.20 1014.13 6999.00 6999.00
   3  6999.00 1012.35 1011.94 1012.06 1013.10 1013.88 1014.31 1014.14 6999.00 6999.00
   4  1013.51 1012.81 1012.19 1012.02 1012.28 1012.36 1012.93 1014.02 1013.80 6999.00
   5  1013.45 1012.81 1012.19 1011.84 1011.93 1012.11 1012.16 1012.47 1012.94 1013.36
   6  1013.35 1012.67 1012.04 1011.63 1011.68 1011.89 1011.93 1012.18 1012.93 1014.17
   7  1013.23 1012.42 1011.79 1011.38 1011.44 1011.65 1011.69 1011.90 1013.00 6999.00
   8  6999.00 1011.99 1011.46 1011.08 1011.15 1011.38 1011.45 1012.09 1013.18 6999.00
   9  6999.00 1011.29 1010.93 1010.66 1010.78 1011.08 1011.26 1012.11 1013.30 6999.00
  10  6999.00 1010.22 1010.12 1010.10 1010.34 1010.74 1011.21 1012.14 1013.44 1014.26
  11  6999.00 1008.37 1008.68 1009.34 1009.86 1010.46 1011.16 1012.27 1013.76 6999.00
  12  1000.92 1004.57 1006.66 1008.26 1009.33 1010.27 1011.20 1012.64 1014.68 6999.00
  13   995.02  999.68 1004.28 1007.43 1009.00 1010.24 1011.54 1013.12 1015.64 6999.00
  14  6999.00 1004.91 1006.41 1008.36 1009.83 1011.14 1012.72 1015.10 1017.75 6999.00
  15  6999.00 6999.00 1008.79 1009.76 1010.82 1011.60 6999.00 6999.00 6999.00 6999.00

 HEAD WILL BE SAVED ON UNIT   62 AT END OF TIME STEP   15, STRESS PERIOD    9
1
  VOLUMETRIC BUDGET FOR ENTIRE MODEL AT END OF TIME STEP   15, STRESS PERIOD   9
  ------------------------------------------------------------------------------

     CUMULATIVE VOLUMES      L**3       RATES FOR THIS TIME STEP      L**3/T
     ------------------                 ------------------------

           IN:                                      IN:
           ---                                      ---
             STORAGE =    13925532.0000               STORAGE =           1.0209
       CONSTANT HEAD =           0.0000         CONSTANT HEAD =           0.0000
               WELLS =           0.0000                 WELLS =           0.0000
     HEAD DEP BOUNDS =    23564992.0000       HEAD DEP BOUNDS =           1.0355
      STREAM LEAKAGE =    89567472.0000        STREAM LEAKAGE =           3.9748
        UZF RECHARGE =   552327488.0000          UZF RECHARGE =          26.1904
               GW ET =           0.0000                 GW ET =           0.0000
     SURFACE LEAKAGE =           0.0000       SURFACE LEAKAGE =           0.0000

            TOTAL IN =   679385472.0000              TOTAL IN =          32.2216

          OUT:                                     OUT:
          ----                                     ----
             STORAGE =   592938496.0000               STORAGE =          26.6945
       CONSTANT HEAD =           0.0000         CONSTANT HEAD =           0.0000
               WELLS =           0.0000                 WELLS =           0.0000
     HEAD DEP BOUNDS =     6393024.5000       HEAD DEP BOUNDS =           0.2668
      STREAM LEAKAGE =    52139968.0000        STREAM LEAKAGE =           0.3924
        UZF RECHARGE =           0.0000          UZF RECHARGE =           0.0000
               GW ET =    27872050.0000                 GW ET =           4.8660
     SURFACE LEAKAGE =           0.0000       SURFACE LEAKAGE =           0.0000

           TOTAL OUT =   679343552.0000             TOTAL OUT =          32.2197

            IN - OUT =       41920.0000              IN - OUT =       1.8845E-03

 PERCENT DISCREPANCY =           0.01     PERCENT DISCREPANCY =           0.01






         TIME SUMMARY AT END OF TIME STEP   15 IN STRESS PERIOD    9
                    SECONDS     MINUTES      HOURS       DAYS        YEARS
                    -----------------------------------------------------------
   TIME STEP LENGTH  87600.      1460.0      24.333      1.0139     2.77588E-03
 STRESS PERIOD TIME 1.31400E+06  21900.      365.00      15.208     4.16381E-02
         TOTAL TIME 2.23380E+07 3.72300E+05  6205.0      258.54     0.70785    
1
 
 SOLVING FOR HEAD 
                                                   Max.-Head-Change                         Max.-Flux-Residual
  Residual-Control   Outer-Iter.   Inner-Iter.     Column Row Layer    Maximum-Head-Change  Column Row Layer    Maximum-Flux-Residual          L2-NORM 
          0                 1           2             7    6     1      -0.2888598058E+00       7    6    1        -0.1574353511E+02      0.1585136387E+02
          0                 2           2             7    6     1       0.3169785876E+00       7    6    1         0.1744959097E+02      0.1745531196E+02
          0                 3           2             7    6     1      -0.1823064901E-01       7    6    1        -0.1013462584E+01      0.1031948635E+01
          0                 4           2             7    6     1      -0.3221536834E-02       7    6    1        -0.1789282327E+00      0.1933124054E+00
          0                 5           2             7    6     1      -0.5699945491E-03       7    6    1        -0.3163242752E-01      0.4517667508E-01
          0                 6           2             8    3     1       0.1113313465E-03       7    6    1        -0.5599043997E-02      0.1547817130E-01
          0                 7           1             8    3     1       0.4997393523E-04       8    3    1         0.1299200018E-02      0.6538360888E-02
          0                 8           1             8    3     1       0.2243189110E-04       8    3    1         0.5831783983E-03      0.2900133681E-02
          0                 9           1             8    3     1       0.1006895650E-04       8    3    1         0.2617719371E-03      0.1297120752E-02
          0                10           1             8    3     1       0.4519592091E-05       8    3    1         0.1175008367E-03      0.5809461361E-03

    ------------------------------------------------
       NWT REQUIRED           10 OUTER ITERATIONS 
       AND A TOTAL OF         16 INNER ITERATIONS.
    ------------------------------------------------

 NO OUTPUT CONTROL FOR STRESS PERIOD    9   TIME STEP   16
 
 SOLVING FOR HEAD 
                                                   Max.-Head-Change                         Max.-Flux-Residual
  Residual-Control   Outer-Iter.   Inner-Iter.     Column Row Layer    Maximum-Head-Change  Column Row Layer    Maximum-Flux-Residual          L2-NORM 
          0                 1           2             7    6     1      -0.2888615579E+00       7    6    1        -0.1574364781E+02      0.1585116032E+02
          0                 2           2             7    6     1       0.3169778131E+00       7    6    1         0.1744956105E+02      0.1745527147E+02
          0                 3           2             7    6     1      -0.1823051907E-01       7    6    1        -0.1013456011E+01      0.1031916125E+01
          0                 4           2             7    6     1      -0.3221510961E-02       7    6    1        -0.1789269098E+00      0.1932850655E+00
          0                 5           2             7    6     1      -0.5699894679E-03       7    6    1        -0.3163216517E-01      0.4515422759E-01
          0                 6           2             8    3     1       0.1111628278E-03       7    6    1        -0.5598992617E-02      0.1546513278E-01
          0                 7           1             8    3     1       0.4989845160E-04       8    3    1         0.1297234223E-02      0.6532182284E-02
          0                 8           1             8    3     1       0.2239808009E-04       8    3    1         0.5822978656E-03      0.2897342233E-02
          0                 9           1             8    3     1       0.1005381178E-04       8    3    1         0.2613775236E-03      0.1295869726E-02
          0                10           1             8    3     1       0.4512807829E-05       8    3    1         0.1173241671E-03      0.5803861771E-03

    ------------------------------------------------
       NWT REQUIRED           10 OUTER ITERATIONS 
       AND A TOTAL OF         16 INNER ITERATIONS.
    ------------------------------------------------

 NO OUTPUT CONTROL FOR STRESS PERIOD    9   TIME STEP   17
 
 SOLVING FOR HEAD 
                                                   Max.-Head-Change                         Max.-Flux-Residual
  Residual-Control   Outer-Iter.   Inner-Iter.     Column Row Layer    Maximum-Head-Change  Column Row Layer    Maximum-Flux-Residual          L2-NORM 
          0                 1           2             7    6     1      -0.2888631022E+00       7    6    1        -0.1574374902E+02      0.1585095062E+02
          0                 2           2             7    6     1       0.3169770446E+00       7    6    1         0.1744953150E+02      0.1745523135E+02
          0                 3           2             7    6     1      -0.1823036158E-01       7    6    1        -0.1013447920E+01      0.1031882207E+01
          0                 4           2             7    6     1      -0.3221480160E-02       7    6    1        -0.1789253152E+00      0.1932576058E+00
          0                 5           2             7    6     1      -0.5699835050E-03       7    6    1        -0.3163185420E-01      0.4513186302E-01
          0                 6           2             8    3     1       0.1109969654E-03       7    6    1        -0.5598932558E-02      0.1545216104E-01
          0                 7           1             8    3     1       0.4982414848E-04       8    3    1         0.1295299370E-02      0.6526035761E-02
          0                 8           1             8    3     1       0.2236479381E-04       8    3    1         0.5814310881E-03      0.2894565294E-02
          0                 9           1             8    3     1       0.1003890003E-04       8    3    1         0.2609892261E-03      0.1294625433E-02
          0                10           1             8    3     1       0.4506128738E-05       8    3    1         0.1171502232E-03      0.5798292381E-03

    ------------------------------------------------
       NWT REQUIRED           10 OUTER ITERATIONS 
       AND A TOTAL OF         16 INNER ITERATIONS.
    ------------------------------------------------

 NO OUTPUT CONTROL FOR STRESS PERIOD    9   TIME STEP   18
 
 SOLVING FOR HEAD 
                                                   Max.-Head-Change                         Max.-Flux-Residual
  Residual-Control   Outer-Iter.   Inner-Iter.     Column Row Layer    Maximum-Head-Change  Column Row Layer    Maximum-Flux-Residual          L2-NORM 
          0                 1           2             7    6     1      -0.2888644507E+00       7    6    1        -0.1574383964E+02      0.1585074665E+02
          0                 2           2             7    6     1       0.3169762830E+00       7    6    1         0.1744950236E+02      0.1745519196E+02
          0                 3           2             7    6     1      -0.1823017807E-01       7    6    1        -0.1013438401E+01      0.1031847273E+01
          0                 4           2             7    6     1      -0.3221444674E-02       7    6    1        -0.1789234634E+00      0.1932301446E+00
          0                 5           2             7    6     1      -0.5699766993E-03       7    6    1        -0.3163149693E-01      0.4510963817E-01
          0                 6           2             8    3     1       0.1108309500E-03       7    6    1        -0.5598864150E-02      0.1543927507E-01
          0                 7           1             8    3     1       0.4974978534E-04       8    3    1         0.1293362774E-02      0.6519930251E-02
          0                 8           1             8    3     1       0.2233148440E-04       8    3    1         0.5805636292E-03      0.2891806796E-02
          0                 9           1             8    3     1       0.1002397991E-04       8    3    1         0.2606006674E-03      0.1293388851E-02
          0                10           1             8    3     1       0.4499445396E-05       8    3    1         0.1169761769E-03      0.5792756717E-03

    ------------------------------------------------
       NWT REQUIRED           10 OUTER ITERATIONS 
       AND A TOTAL OF         16 INNER ITERATIONS.
    ------------------------------------------------

 NO OUTPUT CONTROL FOR STRESS PERIOD    9   TIME STEP   19
 
 SOLVING FOR HEAD 
                                                   Max.-Head-Change                         Max.-Flux-Residual
  Residual-Control   Outer-Iter.   Inner-Iter.     Column Row Layer    Maximum-Head-Change  Column Row Layer    Maximum-Flux-Residual          L2-NORM 
          0                 1           2             7    6     1      -0.2888657354E+00       7    6    1        -0.1574392654E+02      0.1585054250E+02
          0                 2           2             7    6     1       0.3169755382E+00       7    6    1         0.1744947422E+02      0.1745515359E+02
          0                 3           2             7    6     1      -0.1822999961E-01       7    6    1        -0.1013429168E+01      0.1031812757E+01
          0                 4           2             7    6     1      -0.3221410054E-02       7    6    1        -0.1789216606E+00      0.1932028803E+00
          0                 5           2             7    6     1      -0.5699700427E-03       7    6    1        -0.3163114809E-01      0.4508754627E-01
          0                 6           2             8    3     1       0.1106646807E-03       7    6    1        -0.5598797218E-02      0.1542646660E-01
          0                 7           1             8    3     1       0.4967530690E-04       8    3    1         0.1291423201E-02      0.6513865661E-02
          0                 8           1             8    3     1       0.2229812308E-04       8    3    1         0.5796948271E-03      0.2889077688E-02
          0                 9           1             8    3     1       0.1000903627E-04       8    3    1         0.2602114995E-03      0.1292189952E-02
          0                10           1             8    3     1       0.4492751549E-05       8    3    1         0.1168018551E-03      0.5787922530E-03

    ------------------------------------------------
       NWT REQUIRED           10 OUTER ITERATIONS 
       AND A TOTAL OF         16 INNER ITERATIONS.
    ------------------------------------------------

 NO OUTPUT CONTROL FOR STRESS PERIOD    9   TIME STEP   20
 
 SOLVING FOR HEAD 
                                                   Max.-Head-Change                         Max.-Flux-Residual
  Residual-Control   Outer-Iter.   Inner-Iter.     Column Row Layer    Maximum-Head-Change  Column Row Layer    Maximum-Flux-Residual          L2-NORM 
          0                 1           2             7    6     1      -0.2888667287E+00       7    6    1        -0.1574399763E+02      0.1585034367E+02
          0                 2           2             7    6     1       0.3169747884E+00       7    6    1         0.1744944581E+02      0.1745511513E+02
          0                 3           2             7    6     1      -0.1822976990E-01       7    6    1        -0.1013417105E+01      0.1031775662E+01
          0                 4           2             7    6     1      -0.3221366283E-02       7    6    1        -0.1789193527E+00      0.1931752683E+00
          0                 5           2             7    6     1      -0.5699617523E-03       7    6    1        -0.3163070907E-01      0.4506548621E-01
          0                 6           2             8    3     1       0.1105010503E-03       7    6    1        -0.5598714179E-02      0.1541369735E-01
          0                 7           1             8    3     1       0.4960200198E-04       8    3    1         0.1289514372E-02      0.6507810805E-02
          0                 8           1             8    3     1       0.2226528338E-04       8    3    1         0.5788396931E-03      0.2886330827E-02
          0                 9           1             8    3     1       0.9994324491E-05       8    3    1         0.2598284119E-03      0.1290934431E-02

    ------------------------------------------------
       NWT REQUIRED            9 OUTER ITERATIONS 
       AND A TOTAL OF         15 INNER ITERATIONS.
    ------------------------------------------------

 NO OUTPUT CONTROL FOR STRESS PERIOD    9   TIME STEP   21
 
 SOLVING FOR HEAD 
                                                   Max.-Head-Change                         Max.-Flux-Residual
  Residual-Control   Outer-Iter.   Inner-Iter.     Column Row Layer    Maximum-Head-Change  Column Row Layer    Maximum-Flux-Residual          L2-NORM 
          0                 1           2             7    6     1      -0.2888675721E+00       7    6    1        -0.1574406038E+02      0.1585014512E+02
          0                 2           2             7    6     1       0.3169740448E+00       7    6    1         0.1744941779E+02      0.1745507727E+02
          0                 3           2             7    6     1      -0.1822952218E-01       7    6    1        -0.1013404052E+01      0.1031737943E+01
          0                 4           2             7    6     1      -0.3221319289E-02       7    6    1        -0.1789168672E+00      0.1931478389E+00
          0                 5           2             7    6     1      -0.5699528841E-03       7    6    1        -0.3163023825E-01      0.4504368635E-01
          0                 6           2             8    3     1       0.1103374182E-03       7    6    1        -0.5598625454E-02      0.1540108796E-01
          0                 7           1             8    3     1       0.4952870494E-04       8    3    1         0.1287605577E-02      0.6501836746E-02
          0                 8           1             8    3     1       0.2223245068E-04       8    3    1         0.5779846673E-03      0.2883631361E-02
          0                 9           1             8    3     1       0.9979617962E-05       8    3    1         0.2594454155E-03      0.1289724370E-02

    ------------------------------------------------
       NWT REQUIRED            9 OUTER ITERATIONS 
       AND A TOTAL OF         15 INNER ITERATIONS.
    ------------------------------------------------

 NO OUTPUT CONTROL FOR STRESS PERIOD    9   TIME STEP   22
 
 SOLVING FOR HEAD 
                                                   Max.-Head-Change                         Max.-Flux-Residual
  Residual-Control   Outer-Iter.   Inner-Iter.     Column Row Layer    Maximum-Head-Change  Column Row Layer    Maximum-Flux-Residual          L2-NORM 
          0                 1           2             7    6     1      -0.2888683890E+00       7    6    1        -0.1574412153E+02      0.1584994672E+02
          0                 2           2             7    6     1       0.3169733186E+00       7    6    1         0.1744939079E+02      0.1745504059E+02
          0                 3           2             7    6     1      -0.1822928552E-01       7    6    1        -0.1013391618E+01      0.1031700972E+01
          0                 4           2             7    6     1      -0.3221274225E-02       7    6    1        -0.1789144896E+00      0.1931205905E+00
          0                 5           2             7    6     1      -0.5699443547E-03       7    6    1        -0.3162978631E-01      0.4502196278E-01
          0                 6           2             8    3     1       0.1101749829E-03       7    6    1        -0.5598540020E-02      0.1538851619E-01
          0                 7           1             8    3     1       0.4945594076E-04       8    3    1         0.1285710717E-02      0.6495878398E-02
          0                 8           1             8    3     1       0.2219985558E-04       8    3    1         0.5771358494E-03      0.2880938920E-02
          0                 9           1             8    3     1       0.9965016604E-05       8    3    1         0.2590651796E-03      0.1288517467E-02

    ------------------------------------------------
       NWT REQUIRED            9 OUTER ITERATIONS 
       AND A TOTAL OF         15 INNER ITERATIONS.
    ------------------------------------------------

 NO OUTPUT CONTROL FOR STRESS PERIOD    9   TIME STEP   23
 
 SOLVING FOR HEAD 
                                                   Max.-Head-Change                         Max.-Flux-Residual
  Residual-Control   Outer-Iter.   Inner-Iter.     Column Row Layer    Maximum-Head-Change  Column Row Layer    Maximum-Flux-Residual          L2-NORM 
          0                 1           2             7    6     1      -0.2888689476E+00       7    6    1        -0.1574416876E+02      0.1584973668E+02
          0                 2           2             7    6     1       0.3169725878E+00       7    6    1         0.1744936352E+02      0.1745500369E+02
          0                 3           2             7    6     1      -0.1822900273E-01       7    6    1        -0.1013376640E+01      0.1031661815E+01
          0                 4           2             7    6     1      -0.3221220910E-02       7    6    1        -0.1789116572E+00      0.1930932916E+00
          0                 5           2             7    6     1      -0.5699343488E-03       7    6    1        -0.3162925300E-01      0.4500051124E-01
          0                 6           2             8    3     1       0.1100122915E-03       7    6    1        -0.5598440031E-02      0.1537603768E-01
          0                 7           1             8    3     1       0.4938306353E-04       8    3    1         0.1283812880E-02      0.6489974037E-02
          0                 8           1             8    3     1       0.2216721071E-04       8    3    1         0.5762857266E-03      0.2878267549E-02
          0                 9           1             8    3     1       0.9950393612E-05       8    3    1         0.2586843772E-03      0.1287353471E-02

    ------------------------------------------------
       NWT REQUIRED            9 OUTER ITERATIONS 
       AND A TOTAL OF         15 INNER ITERATIONS.
    ------------------------------------------------

 NO OUTPUT CONTROL FOR STRESS PERIOD    9   TIME STEP   24
 
 SOLVING FOR HEAD 
                                                   Max.-Head-Change                         Max.-Flux-Residual
  Residual-Control   Outer-Iter.   Inner-Iter.     Column Row Layer    Maximum-Head-Change  Column Row Layer    Maximum-Flux-Residual          L2-NORM 
          0                 1           2             7    6     1      -0.2888693829E+00       7    6    1        -0.1574420903E+02      0.1584953276E+02
          0                 2           2             7    6     1       0.3169718622E+00       7    6    1         0.1744933660E+02      0.1745496734E+02
          0                 3           2             7    6     1      -0.1822870588E-01       7    6    1        -0.1013360885E+01      0.1031622043E+01
          0                 4           2             7    6     1      -0.3221165091E-02       7    6    1        -0.1789086864E+00      0.1930657288E+00
          0                 5           2             7    6     1      -0.5699238972E-03       7    6    1        -0.3162869506E-01      0.4497884120E-01
          0                 6           1             8    3     1       0.1098521937E-03       7    6    1        -0.5598335659E-02      0.1536359947E-01
          0                 7           1             8    3     1       0.4931133893E-04       8    3    1         0.1281945252E-02      0.6484074788E-02
          0                 8           1             8    3     1       0.2213507807E-04       8    3    1         0.5754490181E-03      0.2875604920E-02
          0                 9           1             8    3     1       0.9935998346E-05       8    3    1         0.2583095252E-03      0.1286126273E-02

    ------------------------------------------------
       NWT REQUIRED            9 OUTER ITERATIONS 
       AND A TOTAL OF         14 INNER ITERATIONS.
    ------------------------------------------------

 NO OUTPUT CONTROL FOR STRESS PERIOD    9   TIME STEP   25
 
 SOLVING FOR HEAD 
                                                   Max.-Head-Change                         Max.-Flux-Residual
  Residual-Control   Outer-Iter.   Inner-Iter.     Column Row Layer    Maximum-Head-Change  Column Row Layer    Maximum-Flux-Residual          L2-NORM 
          0                 1           2             7    6     1      -0.2888698209E+00       7    6    1        -0.1574424938E+02      0.1584932986E+02
          0                 2           2             7    6     1       0.3169711545E+00       7    6    1         0.1744931071E+02      0.1745493206E+02
          0                 3           2             7    6     1      -0.1822842451E-01       7    6    1        -0.1013345997E+01      0.1031583338E+01
          0                 4           2             7    6     1      -0.3221111979E-02       7    6    1        -0.1789058669E+00      0.1930386623E+00
          0                 5           2             7    6     1      -0.5699139192E-03       7    6    1        -0.3162816357E-01      0.4495753943E-01
          0                 6           1             8    3     1       0.1096919003E-03       7    6    1        -0.5598235938E-02      0.1535128844E-01
          0                 7           1             8    3     1       0.4923953693E-04       8    3    1         0.1280075399E-02      0.6478247026E-02
          0                 8           1             8    3     1       0.2210291479E-04       8    3    1         0.5746114294E-03      0.2872985291E-02
          0                 9           1             8    3     1       0.9921590824E-05       8    3    1         0.2579343357E-03      0.1284982911E-02

    ------------------------------------------------
       NWT REQUIRED            9 OUTER ITERATIONS 
       AND A TOTAL OF         14 INNER ITERATIONS.
    ------------------------------------------------

 NO OUTPUT CONTROL FOR STRESS PERIOD    9   TIME STEP   26
 
 SOLVING FOR HEAD 
                                                   Max.-Head-Change                         Max.-Flux-Residual
  Residual-Control   Outer-Iter.   Inner-Iter.     Column Row Layer    Maximum-Head-Change  Column Row Layer    Maximum-Flux-Residual          L2-NORM 
          0                 1           2             7    6     1      -0.2888700287E+00       7    6    1        -0.1574427726E+02      0.1584912776E+02
          0                 2           2             7    6     1       0.3169704415E+00       7    6    1         0.1744928452E+02      0.1745489669E+02
          0                 3           2             7    6     1      -0.1822810150E-01       7    6    1        -0.1013328810E+01      0.1031542602E+01
          0                 4           2             7    6     1      -0.3221051434E-02       7    6    1        -0.1789026370E+00      0.1930113525E+00
          0                 5           2             7    6     1      -0.5699026151E-03       7    6    1        -0.3162755889E-01      0.4493627516E-01
          0                 6           1             8    3     1       0.1095313083E-03       7    6    1        -0.5598123148E-02      0.1533901481E-01
          0                 7           1             8    3     1       0.4916759974E-04       8    3    1         0.1278202041E-02      0.6472433543E-02
          0                 8           1             8    3     1       0.2207069086E-04       8    3    1         0.5737722639E-03      0.2870358928E-02
          0                 9           1             8    3     1       0.9907156416E-05       8    3    1         0.2575584367E-03      0.1283806796E-02

    ------------------------------------------------
       NWT REQUIRED            9 OUTER ITERATIONS 
       AND A TOTAL OF         14 INNER ITERATIONS.
    ------------------------------------------------

 NO OUTPUT CONTROL FOR STRESS PERIOD    9   TIME STEP   27
 
 SOLVING FOR HEAD 
                                                   Max.-Head-Change                         Max.-Flux-Residual
  Residual-Control   Outer-Iter.   Inner-Iter.     Column Row Layer    Maximum-Head-Change  Column Row Layer    Maximum-Flux-Residual          L2-NORM 
          0                 1           2             7    6     1      -0.2888701400E+00       7    6    1        -0.1574429966E+02      0.1584892023E+02
          0                 2           2             7    6     1       0.3169697338E+00       7    6    1         0.1744925869E+02      0.1745486170E+02
          0                 3           2             7    6     1      -0.1822776873E-01       7    6    1        -0.1013311083E+01      0.1031501530E+01
          0                 4           2             7    6     1      -0.3220989149E-02       7    6    1        -0.1788993111E+00      0.1929841670E+00
          0                 5           2             7    6     1      -0.5698909999E-03       7    6    1        -0.3162693704E-01      0.4491517775E-01
          0                 6           1             8    3     1       0.1093733614E-03       7    6    1        -0.5598007291E-02      0.1532684624E-01
          0                 7           1             8    3     1       0.4909684370E-04       8    3    1         0.1276359532E-02      0.6466667716E-02
          0                 8           1             8    3     1       0.2203899391E-04       8    3    1         0.5729468642E-03      0.2867753647E-02
          0                 9           1             8    3     1       0.9892957362E-05       8    3    1         0.2571886792E-03      0.1282640679E-02

    ------------------------------------------------
       NWT REQUIRED            9 OUTER ITERATIONS 
       AND A TOTAL OF         14 INNER ITERATIONS.
    ------------------------------------------------

 NO OUTPUT CONTROL FOR STRESS PERIOD    9   TIME STEP   28
 
 SOLVING FOR HEAD 
                                                   Max.-Head-Change                         Max.-Flux-Residual
  Residual-Control   Outer-Iter.   Inner-Iter.     Column Row Layer    Maximum-Head-Change  Column Row Layer    Maximum-Flux-Residual          L2-NORM 
          0                 1           2             7    6     1      -0.2888702775E+00       7    6    1        -0.1574432349E+02      0.1584872644E+02
          0                 2           2             7    6     1       0.3169690441E+00       7    6    1         0.1744923386E+02      0.1745482795E+02
          0                 3           2             7    6     1      -0.1822745481E-01       7    6    1        -0.1013294411E+01      0.1031461695E+01
          0                 4           2             7    6     1      -0.3220930167E-02       7    6    1        -0.1788961695E+00      0.1929573106E+00
          0                 5           2             7    6     1      -0.5698799648E-03       7    6    1        -0.3162634752E-01      0.4489423223E-01
          0                 6           1             8    3     1       0.1092151367E-03       7    6    1        -0.5597897102E-02      0.1531474276E-01
          0                 7           1             8    3     1       0.4902596636E-04       8    3    1         0.1274513794E-02      0.6460924229E-02
          0                 8           1             8    3     1       0.2200724432E-04       8    3    1         0.5721200627E-03      0.2865141942E-02
          0                 9           1             8    3     1       0.9878735172E-05       8    3    1         0.2568183151E-03      0.1281435252E-02

    ------------------------------------------------
       NWT REQUIRED            9 OUTER ITERATIONS 
       AND A TOTAL OF         14 INNER ITERATIONS.
    ------------------------------------------------

 NO OUTPUT CONTROL FOR STRESS PERIOD    9   TIME STEP   29
 
 SOLVING FOR HEAD 
                                                   Max.-Head-Change                         Max.-Flux-Residual
  Residual-Control   Outer-Iter.   Inner-Iter.     Column Row Layer    Maximum-Head-Change  Column Row Layer    Maximum-Flux-Residual          L2-NORM 
          0                 1           2             7    6     1      -0.2888702103E+00       7    6    1        -0.1574433604E+02      0.1584852065E+02
          0                 2           2             7    6     1       0.3169683481E+00       7    6    1         0.1744920872E+02      0.1745479387E+02
          0                 3           2             7    6     1      -0.1822710363E-01       7    6    1        -0.1013275675E+01      0.1031419995E+01
          0                 4           2             7    6     1      -0.3220864562E-02       7    6    1        -0.1788926614E+00      0.1929302130E+00
          0                 5           2             7    6     1      -0.5698677515E-03       7    6    1        -0.3162569283E-01      0.4487331256E-01
          0                 6           1             8    3     1       0.1090580380E-03       7    6    1        -0.5597775328E-02      0.1530303766E-01
          0                 7           1             8    3     1       0.4895558924E-04       8    3    1         0.1272681175E-02      0.6456331233E-02
          0                 8           1             8    3     1       0.2197571719E-04       8    3    1         0.5712990859E-03      0.2862600337E-02
          0                 9           1             8    3     1       0.9864611277E-05       8    3    1         0.2564505319E-03      0.1280277102E-02

    ------------------------------------------------
       NWT REQUIRED            9 OUTER ITERATIONS 
       AND A TOTAL OF         14 INNER ITERATIONS.
    ------------------------------------------------

 NO OUTPUT CONTROL FOR STRESS PERIOD    9   TIME STEP   30



 STREAM LISTING     PERIOD      9   STEP       30

 LAYER ROW COL. STREAM  RCH.  FLOW INTO     FLOW TO   FLOW OUT OF   OVRLND.     DIRECT     STREAM       STREAM     STREAM     STREAM   STREAMBED  STREAMBED
                SEG.NO.  NO.  STRM. RCH.    AQUIFER    STRM. RCH.    RUNOFF     PRECIP       ET          HEAD       DEPTH      WIDTH   CONDCTNC.   GRADIENT

   1    1    1     1     1    2.1000E+01  2.2592E-09   2.1000E+01  0.000E+00  0.000E+00  0.000E+00  1.09416E+03  1.115E+00  1.220E+01  5.490E-10  1.372E+00
   1    2    2     1     2    2.1000E+01  3.5093E-09   2.1000E+01  0.000E+00  0.000E+00  0.000E+00  1.08917E+03  1.114E+00  1.219E+01  8.530E-10  1.371E+00
   1    3    3     1     3    2.1000E+01  3.0097E-09   2.1000E+01  0.000E+00  0.000E+00  0.000E+00  1.08353E+03  1.115E+00  1.219E+01  7.315E-10  1.372E+00
   1    3    4     1     4    2.1000E+01  2.7847E-09   2.1000E+01  0.000E+00  0.000E+00  0.000E+00  1.07852E+03  1.115E+00  1.219E+01  6.768E-10  1.372E+00
   1    4    5     2     1    1.9000E+01  3.1349E-01   1.8687E+01  0.000E+00  0.000E+00  0.000E+00  1.07295E+03  1.019E+00  1.200E+01  7.800E-02  1.340E+00
   1    5    6     2     2    1.8687E+01  2.4061E-01   1.8446E+01  0.000E+00  0.000E+00  0.000E+00  1.06752E+03  1.010E+00  1.200E+01  6.000E-02  1.337E+00
   1    6    6     2     3    1.8446E+01  2.4014E-01   1.8206E+01  0.000E+00  0.000E+00  0.000E+00  1.06279E+03  1.002E+00  1.200E+01  6.000E-02  1.334E+00
   1    7    6     2     4    1.8206E+01  2.3966E-01   1.7966E+01  0.000E+00  0.000E+00  0.000E+00  1.05807E+03  9.944E-01  1.200E+01  6.000E-02  1.331E+00
   1    8    6     2     5    1.7966E+01  2.3919E-01   1.7727E+01  0.000E+00  0.000E+00  0.000E+00  1.05334E+03  9.865E-01  1.200E+01  6.000E-02  1.329E+00
   1    3    5     3     1    2.0000E+00  2.8252E-01   1.7175E+00  0.000E+00  0.000E+00  0.000E+00  1.07555E+03  1.909E+00  9.636E+00  7.227E-02  1.955E+00
   1    3    6     3     2    1.7175E+00  2.4905E-01   1.4684E+00  0.000E+00  0.000E+00  0.000E+00  1.07264E+03  1.727E+00  8.909E+00  6.682E-02  1.864E+00
   1    3    7     3     3    1.4684E+00  1.9718E-01   1.2712E+00  0.000E+00  0.000E+00  0.000E+00  1.06987E+03  1.555E+00  8.218E+00  5.547E-02  1.777E+00
   1    4    8     3     4    1.2712E+00  2.2567E-01   1.0456E+00  0.000E+00  0.000E+00  0.000E+00  1.06682E+03  1.364E+00  7.455E+00  6.709E-02  1.682E+00
   1    5    8     3     5    1.0456E+00  1.5790E-01   8.8768E-01  0.000E+00  0.000E+00  0.000E+00  1.06362E+03  1.164E+00  6.655E+00  4.991E-02  1.582E+00
   1    6    8     3     6    8.8768E-01  5.5980E-02   8.3170E-01  0.000E+00  0.000E+00  0.000E+00  1.06158E+03  1.036E+00  6.145E+00  1.844E-02  1.518E+00
   1    5   10     4     1    1.0000E+01  9.0919E-02   9.9091E+00  0.000E+00  0.000E+00  0.000E+00  1.07836E+03  6.368E-01  1.000E+01  2.500E-02  1.212E+00
   1    5    9     4     2    9.9091E+00  1.8158E-01   9.7275E+00  0.000E+00  0.000E+00  0.000E+00  1.07154E+03  6.315E-01  1.000E+01  5.000E-02  1.211E+00
   1    6    8     4     3    9.7275E+00  1.2689E-01   9.6006E+00  0.000E+00  0.000E+00  0.000E+00  1.06381E+03  6.256E-01  1.000E+01  3.500E-02  1.209E+00
   1    6    8     5     1    1.0432E+01  2.2686E-09   1.0432E+01  0.000E+00  0.000E+00  0.000E+00  1.05868E+03  6.790E-01  1.542E+01  6.166E-10  1.226E+00
   1    7    7     5     2    1.0432E+01  2.8306E-09   1.0432E+01  0.000E+00  0.000E+00  0.000E+00  1.05418E+03  6.784E-01  1.539E+01  7.695E-10  1.226E+00
   1    8    7     5     3    1.0432E+01  1.9868E-09   1.0432E+01  0.000E+00  0.000E+00  0.000E+00  1.04993E+03  6.794E-01  1.543E+01  5.400E-10  1.226E+00
   1    8    6     5     4    1.0432E+01  1.4217E-09   1.0432E+01  0.000E+00  0.000E+00  0.000E+00  1.04693E+03  6.800E-01  1.545E+01  3.863E-10  1.227E+00
   1    9    6     6     1    2.8159E+01  2.5847E-01   2.7901E+01  0.000E+00  0.000E+00  0.000E+00  1.04404E+03  1.308E+00  1.200E+01  6.000E-02  1.436E+00
   1   10    7     6     2    2.7901E+01  2.5803E-01   2.7643E+01  0.000E+00  0.000E+00  0.000E+00  1.03948E+03  1.301E+00  1.200E+01  6.000E-02  1.434E+00
   1   11    7     6     3    2.7643E+01  2.5760E-01   2.7385E+01  0.000E+00  0.000E+00  0.000E+00  1.03493E+03  1.293E+00  1.200E+01  6.000E-02  1.431E+00
   1   12    7     6     4    2.7385E+01  2.5716E-01   2.7128E+01  0.000E+00  0.000E+00  0.000E+00  1.03038E+03  1.286E+00  1.200E+01  6.000E-02  1.429E+00
   1   13    7     6     5    2.7128E+01  1.0274E-01   2.7025E+01  0.000E+00  0.000E+00  0.000E+00  1.02719E+03  1.281E+00  1.200E+01  2.400E-02  1.427E+00
   1   14    9     7     1    1.5000E+02  2.9539E-08   1.5000E+02  0.000E+00  0.000E+00  0.000E+00  1.03986E+03  2.283E+00  5.528E+01  5.591E-09  1.761E+00
   1   13    8     7     2    1.5000E+02  3.2486E-14   1.5000E+02  0.000E+00  0.000E+00  0.000E+00  1.03478E+03  2.283E+00  5.527E+01  6.150E-15  1.761E+00
   1   13    7     7     3    1.5000E+02  2.9539E-08   1.5000E+02  0.000E+00  0.000E+00  0.000E+00  1.02970E+03  2.283E+00  5.528E+01  5.591E-09  1.761E+00
   1   13    6     8     1    1.7703E+02  2.6450E-14   1.7703E+02  0.000E+00  0.000E+00  0.000E+00  1.02486E+03  2.989E+00  4.334E+01  4.416E-15  1.996E+00
   1   13    5     8     2    1.7703E+02  2.6450E-14   1.7703E+02  0.000E+00  0.000E+00  0.000E+00  1.01861E+03  2.989E+00  4.334E+01  4.416E-15  1.996E+00
   1   13    4     8     3    1.7703E+02  2.1893E-10   1.7703E+02  0.000E+00  0.000E+00  0.000E+00  1.01237E+03  2.990E+00  4.336E+01  4.419E-11  1.652E+00
   1   13    3     8     4    1.7703E+02  8.5257E-10   1.7703E+02  0.000E+00  0.000E+00  0.000E+00  1.00612E+03  2.995E+00  4.342E+01  4.425E-10  6.422E-01
   1   13    2     8     5    1.7703E+02  1.1624E-05   1.7703E+02  0.000E+00  0.000E+00  0.000E+00  9.99872E+02  2.997E+00  4.346E+01  4.428E-05  8.749E-02
   1   13    1     8     6    1.7703E+02 -3.3044E-01   1.7736E+02  0.000E+00  0.000E+00  0.000E+00  9.94873E+02  2.998E+00  4.348E+01  2.658E+00 -4.144E-02
   1    6    8     9     1    9.1271E-08  0.0000E+00   9.1271E-08  0.000E+00  0.000E+00  0.000E+00  1.07850E+03  8.248E-06  4.000E+00  0.000E+00  1.000E+00





UNSATURATED ZONE PACKAGE VOLUMETRIC BUDGET FOR  TIME STEP    30 STRESS PERIOD    9
  ------------------------------------------------------------------------------



     CUMULATIVE VOLUMES      L**3       RATES FOR THIS TIME STEP      L**3/T
     ------------------                 ------------------------

           IN:                                      IN:
           ---                                      ---
        INFILTRATION =    47630270.5165          INFILTRATION =           0.8475

          OUT:                                     OUT:
          ----                                     ----
              UZF ET =   561049530.9880                UZF ET =           3.9090
        UZF RECHARGE =   586650184.0520          UZF RECHARGE =          26.0645

            IN - OUT = -1100069444.5235              IN - OUT =         -29.1260

          STORAGE:                                 STORAGE:
          --------                                 --------
      STORAGE CHANGE = -1100062663.5353        STORAGE CHANGE =         -29.1260

 PERCENT DISCREPANCY IS DIFFERENCE BETWEEN IN-OUT MINUS CHANGE IN STORAGE
 DIVIDED BY THE AVERAGE OF IN AND OUT TIMES 100

 PERCENT DISCREPANCY =          -0.00     PERCENT DISCREPANCY =           0.00






1
  VOLUMETRIC BUDGET FOR ENTIRE MODEL AT END OF TIME STEP   30, STRESS PERIOD   9
  ------------------------------------------------------------------------------

     CUMULATIVE VOLUMES      L**3       RATES FOR THIS TIME STEP      L**3/T
     ------------------                 ------------------------

           IN:                                      IN:
           ---                                      ---
             STORAGE =    15114939.0000               STORAGE =           0.8118
       CONSTANT HEAD =           0.0000         CONSTANT HEAD =           0.0000
               WELLS =           0.0000                 WELLS =           0.0000
     HEAD DEP BOUNDS =    24923932.0000       HEAD DEP BOUNDS =           1.0331
      STREAM LEAKAGE =    94790352.0000        STREAM LEAKAGE =           3.9748
        UZF RECHARGE =   586650304.0000          UZF RECHARGE =          26.0645
               GW ET =           0.0000                 GW ET =           0.0000
     SURFACE LEAKAGE =           0.0000       SURFACE LEAKAGE =           0.0000

            TOTAL IN =   721479552.0000              TOTAL IN =          31.8842

          OUT:                                     OUT:
          ----                                     ----
             STORAGE =   627815808.0000               STORAGE =          26.4183
       CONSTANT HEAD =           0.0000         CONSTANT HEAD =           0.0000
               WELLS =           0.0000                 WELLS =           0.0000
     HEAD DEP BOUNDS =     6742936.5000       HEAD DEP BOUNDS =           0.2659
      STREAM LEAKAGE =    52608904.0000        STREAM LEAKAGE =           0.3304
        UZF RECHARGE =           0.0000          UZF RECHARGE =           0.0000
               GW ET =    34265448.0000                 GW ET =           4.8653
     SURFACE LEAKAGE =           0.0000       SURFACE LEAKAGE =           0.0000

           TOTAL OUT =   721433088.0000             TOTAL OUT =          31.8800

            IN - OUT =       46464.0000              IN - OUT =       4.1504E-03

 PERCENT DISCREPANCY =           0.01     PERCENT DISCREPANCY =           0.01






         TIME SUMMARY AT END OF TIME STEP   30 IN STRESS PERIOD    9
                    SECONDS     MINUTES      HOURS       DAYS        YEARS
                    -----------------------------------------------------------
   TIME STEP LENGTH  87600.      1460.0      24.333      1.0139     2.77588E-03
 STRESS PERIOD TIME 2.62800E+06  43800.      730.00      30.417     8.32763E-02
         TOTAL TIME 2.36520E+07 3.94200E+05  6570.0      273.75     0.74949    
1
1
                            STRESS PERIOD NO.   10, LENGTH =   2628000.    
                            -----------------------------------------------

                              NUMBER OF TIME STEPS =    30

                               MULTIPLIER FOR DELT =     1.000

                            INITIAL TIME STEP SIZE =   87600.00    

 WELL NO.  LAYER   ROW   COL   STRESS RATE         
 --------------------------------------------------
      1      1      6      4       0.000    
      2      1      6      7       0.000    
      3      1      7      4       0.000    
      4      1      7      5       0.000    
      5      1      8      4       0.000    
      6      1      8      5       0.000    
      7      1      9      4       0.000    
      8      1      9      5       0.000    
      9      1     10      4       0.000    
     10      1     10      5       0.000    

     10 WELLS

 REUSING NON-PARAMETER GHB CELLS FROM LAST STRESS PERIOD

      2 GHB CELLS

 REUSING STREAM SEGMENT DATA FROM LAST STRESS PERIOD



            AREAL INFILTRATION RATE
 READING ON UNIT   19 WITH FORMAT: (10F4.0)            

            1           2           3           4           5           6           7           8           9          10
 ........................................................................................................................
   1   1.0000E-10  2.0000E-10   0.000       0.000       0.000       0.000       0.000       0.000       0.000       0.000    
   2   2.0000E-10  1.0000E-10  2.0000E-10   0.000       0.000      8.0000E-10  8.0000E-10  5.0000E-10   0.000       0.000    
   3    0.000      5.0000E-10  1.0000E-10  1.0000E-10  8.0000E-10  8.0000E-10  5.0000E-10  5.0000E-10   0.000       0.000    
   4   8.0000E-10  5.0000E-10  1.0000E-10  1.0000E-10  1.0000E-10  1.0000E-10  1.0000E-10  1.0000E-10  2.0000E-10   0.000    
   5   8.0000E-10  5.0000E-10  1.0000E-10  1.0000E-10  1.0000E-10  1.0000E-10  1.0000E-10  1.0000E-10  1.0000E-10  1.0000E-10
   6   8.0000E-10  5.0000E-10  5.0000E-10  2.0000E-10  2.0000E-10  1.0000E-10  1.0000E-10  1.0000E-10  1.0000E-10  5.0000E-10
   7   8.0000E-10  5.0000E-10  5.0000E-10  2.0000E-10  2.0000E-10  1.0000E-10  1.0000E-10  2.0000E-10  2.0000E-10   0.000    
   8    0.000      5.0000E-10  5.0000E-10  2.0000E-10  2.0000E-10  1.0000E-10  1.0000E-10  2.0000E-10  5.0000E-10   0.000    
   9    0.000      5.0000E-10  5.0000E-10  2.0000E-10  2.0000E-10  1.0000E-10  1.0000E-10  2.0000E-10  5.0000E-10   0.000    
  10    0.000      5.0000E-10  5.0000E-10  2.0000E-10  2.0000E-10  1.0000E-10  1.0000E-10  2.0000E-10  5.0000E-10  8.0000E-10
  11    0.000      1.0000E-10  1.0000E-10  1.0000E-10  1.0000E-10  1.0000E-10  1.0000E-10  2.0000E-10  5.0000E-10   0.000    
  12   1.0000E-10  1.0000E-10  1.0000E-10  1.0000E-10  1.0000E-10  1.0000E-10  1.0000E-10  1.0000E-10  2.0000E-10   0.000    
  13   1.0000E-10  1.0000E-10  2.0000E-10  2.0000E-10  2.0000E-10  2.0000E-10  2.0000E-10  1.0000E-10  1.0000E-10   0.000    
  14    0.000      2.0000E-10  5.0000E-10  5.0000E-10  5.0000E-10  5.0000E-10  5.0000E-10  2.0000E-10  1.0000E-10   0.000    
  15    0.000       0.000      8.0000E-10  8.0000E-10  8.0000E-10  8.0000E-10   0.000       0.000       0.000       0.000    

                  ET RATE =  1.500000E-08

 USING ET EXTINCTION DEPTH FROM PREVIOUS STRESS PERIOD. CURRENT PERIOD IS:      10

 USING EXTINCTION WATER CONTENT FROM PREVIOUS STRESS PERIOD. CURRENT PERIOD IS:      10
 
 SOLVING FOR HEAD 
                                                   Max.-Head-Change                         Max.-Flux-Residual
  Residual-Control   Outer-Iter.   Inner-Iter.     Column Row Layer    Maximum-Head-Change  Column Row Layer    Maximum-Flux-Residual          L2-NORM 
          0                 1           2             7    6     1      -0.2888731767E+00       7    6    1        -0.1574434447E+02      0.1593693768E+02
          0                 2           2             7    6     1       0.3169666117E+00       7    6    1         0.1744915903E+02      0.1745551695E+02
          0                 3           2             7    6     1      -0.1822735777E-01       7    6    1        -0.1013285145E+01      0.1031476476E+01
          0                 4           2             7    6     1      -0.3220932642E-02       7    6    1        -0.1788956389E+00      0.1929078131E+00
          0                 5           2             7    6     1      -0.5698837991E-03       7    6    1        -0.3162644477E-01      0.4485338605E-01
          0                 6           1             8    3     1       0.1089021066E-03       7    6    1        -0.5597945980E-02      0.1529103669E-01
          0                 7           1             8    3     1       0.4888573522E-04       8    3    1         0.1270862171E-02      0.6449700954E-02
          0                 8           1             8    3     1       0.2194442417E-04       8    3    1         0.5704842111E-03      0.2860082416E-02
          0                 9           1             8    3     1       0.9850593053E-05       8    3    1         0.2560854888E-03      0.1279173404E-02

    ------------------------------------------------
       NWT REQUIRED            9 OUTER ITERATIONS 
       AND A TOTAL OF         14 INNER ITERATIONS.
    ------------------------------------------------

 NO OUTPUT CONTROL FOR STRESS PERIOD   10   TIME STEP    1
 
 SOLVING FOR HEAD 
                                                   Max.-Head-Change                         Max.-Flux-Residual
  Residual-Control   Outer-Iter.   Inner-Iter.     Column Row Layer    Maximum-Head-Change  Column Row Layer    Maximum-Flux-Residual          L2-NORM 
          0                 1           2             7    6     1      -0.2888818374E+00       7    6    1        -0.1574456676E+02      0.1592279662E+02
          0                 2           2             7    6     1       0.3169641705E+00       7    6    1         0.1744908848E+02      0.1745528155E+02
          0                 3           2             7    6     1      -0.1822849577E-01       7    6    1        -0.1013340314E+01      0.1031430125E+01
          0                 4           2             7    6     1      -0.3221173675E-02       7    6    1        -0.1789076348E+00      0.1928864429E+00
          0                 5           2             7    6     1      -0.5699333185E-03       7    6    1        -0.3162895377E-01      0.4483399258E-01
          0                 6           1             8    3     1       0.1087458554E-03       7    6    1        -0.5598454636E-02      0.1527930145E-01
          0                 7           1             8    3     1       0.4881573915E-04       8    3    1         0.1269039443E-02      0.6444108434E-02
          0                 8           1             8    3     1       0.2191306825E-04       8    3    1         0.5696676897E-03      0.2857564886E-02
          0                 9           1             8    3     1       0.9836546692E-05       8    3    1         0.2557197151E-03      0.1278051308E-02

    ------------------------------------------------
       NWT REQUIRED            9 OUTER ITERATIONS 
       AND A TOTAL OF         14 INNER ITERATIONS.
    ------------------------------------------------

 NO OUTPUT CONTROL FOR STRESS PERIOD   10   TIME STEP    2
 
 SOLVING FOR HEAD 
                                                   Max.-Head-Change                         Max.-Flux-Residual
  Residual-Control   Outer-Iter.   Inner-Iter.     Column Row Layer    Maximum-Head-Change  Column Row Layer    Maximum-Flux-Residual          L2-NORM 
          0                 1           2             7    6     1      -0.2888913615E+00       7    6    1        -0.1574510369E+02      0.1591951240E+02
          0                 2           2             7    6     1       0.3169631884E+00       7    6    1         0.1744904555E+02      0.1745519687E+02
          0                 3           2             7    6     1      -0.1822942674E-01       7    6    1        -0.1013392090E+01      0.1031451606E+01
          0                 4           2             7    6     1      -0.3221338190E-02       7    6    1        -0.1789167876E+00      0.1928719964E+00
          0                 5           2             7    6     1      -0.5699623804E-03       7    6    1        -0.3163057075E-01      0.4481587136E-01
          0                 6           1             8    3     1       0.1085922475E-03       7    6    1        -0.5598740150E-02      0.1526815180E-01
          0                 7           1             8    3     1       0.4874692635E-04       8    3    1         0.1267247552E-02      0.6438798705E-02
          0                 8           1             8    3     1       0.2188224132E-04       8    3    1         0.5688649497E-03      0.2855178183E-02
          0                 9           1             8    3     1       0.9822736685E-05       8    3    1         0.2553601004E-03      0.1276994499E-02

    ------------------------------------------------
       NWT REQUIRED            9 OUTER ITERATIONS 
       AND A TOTAL OF         14 INNER ITERATIONS.
    ------------------------------------------------

 NO OUTPUT CONTROL FOR STRESS PERIOD   10   TIME STEP    3
 
 SOLVING FOR HEAD 
                                                   Max.-Head-Change                         Max.-Flux-Residual
  Residual-Control   Outer-Iter.   Inner-Iter.     Column Row Layer    Maximum-Head-Change  Column Row Layer    Maximum-Flux-Residual          L2-NORM 
          0                 1           2             7    6     1      -0.2887634893E+00       7    6    1        -0.1573815784E+02      0.1590911766E+02
          0                 2           2             7    6     1       0.2645746276E-01       7    6    1         0.1456999099E+01      0.1528473466E+01
          0                 3           2             7    6     1      -0.2066006934E-02       7    6    1        -0.1149174454E+00      0.2006525489E+00
          0                 4           2             8    3     1       0.5381096332E-03       7    6    1         0.2544583740E-01      0.7552370122E-01
          0                 5           2             7    6     1       0.2584293309E-03       7    6    1         0.1448164057E-01      0.3484257742E-01
          0                 6           2             7    6     1       0.2726788791E-03       7    6    1         0.1528333877E-01      0.2085271842E-01
          0                 7           2             7    6     1       0.2722225831E-03       7    6    1         0.1525820679E-01      0.1653012995E-01
          0                 8           2             7    6     1       0.2728118145E-03       7    6    1         0.1529127351E-01      0.1555621512E-01
          0                 9           2             7    6     1       0.2733304609E-03       7    6    1         0.1532026132E-01      0.1537563867E-01
          0                10           2             7    6     1       0.2738379390E-03       7    6    1         0.1534858535E-01      0.1536164575E-01
                                                   Max.-Head-Change                         Max.-Flux-Residual
  Residual-Control   Outer-Iter.   Inner-Iter.     Column Row Layer    Maximum-Head-Change  Column Row Layer    Maximum-Flux-Residual          L2-NORM 
          0                11           2             7    6     1       0.2743805337E-03       7    6    1         0.1537886395E-01      0.1538343081E-01
          0                12           2             7    6     1       0.2749037721E-03       7    6    1         0.1540805119E-01      0.1541092197E-01
          0                13           2             7    6     1       0.2754284214E-03       7    6    1         0.1543731478E-01      0.1543984855E-01
          0                14           2             7    6     1       0.2759700070E-03       7    6    1         0.1546752620E-01      0.1546999648E-01
          0                15           2             7    6     1       0.2764763868E-03       7    6    1         0.1549576295E-01      0.1549822599E-01
          0                16           2             7    6     1       0.2770192702E-03       7    6    1         0.1552604548E-01      0.1552851592E-01
          0                17           2             7    6     1       0.2775595896E-03       7    6    1         0.1555618341E-01      0.1555864675E-01
          0                18           2             7    6     1       0.2780830786E-03       7    6    1         0.1558537728E-01      0.1558785638E-01
          0                19           2             7    6     1       0.2786247631E-03       7    6    1         0.1561559068E-01      0.1561805869E-01
          0                20           2             7    6     1       0.2791651702E-03       7    6    1         0.1564573171E-01      0.1564821865E-01
                                                   Max.-Head-Change                         Max.-Flux-Residual
  Residual-Control   Outer-Iter.   Inner-Iter.     Column Row Layer    Maximum-Head-Change  Column Row Layer    Maximum-Flux-Residual          L2-NORM 
          0                21           2             7    6     1       0.2796886519E-03       7    6    1         0.1567492349E-01      0.1567741329E-01
          0                22           2             7    6     1       0.2802303385E-03       7    6    1         0.1570513529E-01      0.1570762290E-01
          0                23           2             7    6     1       0.2807707447E-03       7    6    1         0.1573527462E-01      0.1573778239E-01
          0                24           2             7    6     1       0.2813112406E-03       7    6    1         0.1576541842E-01      0.1576791542E-01
          0                25           2             7    6     1       0.2818517311E-03       7    6    1         0.1579556134E-01      0.1579806978E-01
          0                26           2             7    6     1       0.2824092360E-03       7    6    1         0.1582665738E-01      0.1582917444E-01
          0                27           2             7    6     1       0.2829315148E-03       7    6    1         0.1585577826E-01      0.1585828857E-01
          0                28           2             7    6     1       0.2834732877E-03       7    6    1         0.1588599148E-01      0.1588851781E-01
          0                29           2             7    6     1       0.2840477170E-03       7    6    1         0.1591803441E-01      0.1592056303E-01
          0                30           2             7    6     1       0.2845688032E-03       7    6    1         0.1594708666E-01      0.1594962977E-01
                                                   Max.-Head-Change                         Max.-Flux-Residual
  Residual-Control   Outer-Iter.   Inner-Iter.     Column Row Layer    Maximum-Head-Change  Column Row Layer    Maximum-Flux-Residual          L2-NORM 
          0                31           2             7    6     1       0.2851276766E-03       7    6    1         0.1597825662E-01      0.1598078277E-01
          0                32           2             7    6     1       0.2856668718E-03       7    6    1         0.1600832289E-01      0.1601086906E-01
          0                33           2             7    6     1       0.2862244700E-03       7    6    1         0.1603942012E-01      0.1604196589E-01
          0                34           2             7    6     1       0.2867807716E-03       7    6    1         0.1607044396E-01      0.1607299898E-01
          0                35           2             7    6     1       0.2873371648E-03       7    6    1         0.1610147235E-01      0.1610403353E-01
          0                36           2             7    6     1       0.2878765355E-03       7    6    1         0.1613154614E-01      0.1613410574E-01
          0                37           2             7    6     1       0.2884511378E-03       7    6    1         0.1616359405E-01      0.1616617009E-01
          0                38           2             7    6     1       0.2889892246E-03       7    6    1         0.1619359462E-01      0.1619616467E-01
          0                39           2             7    6     1       0.2895469024E-03       7    6    1         0.1622469281E-01      0.1622727306E-01
          0                40           2             7    6     1       0.2901202144E-03       7    6    1         0.1625666653E-01      0.1625925226E-01
                                                   Max.-Head-Change                         Max.-Flux-Residual
  Residual-Control   Outer-Iter.   Inner-Iter.     Column Row Layer    Maximum-Head-Change  Column Row Layer    Maximum-Flux-Residual          L2-NORM 
          0                41           2             7    6     1       0.2906754087E-03       7    6    1         0.1628762414E-01      0.1629021266E-01
          0                42           2             7    6     1       0.2912318810E-03       7    6    1         0.1631865288E-01      0.1632124633E-01
          0                43           2             7    6     1       0.2917882616E-03       7    6    1         0.1634967595E-01      0.1635228055E-01
          0                44           2             7    6     1       0.2923616669E-03       7    6    1         0.1638165251E-01      0.1638426277E-01
          0                45           2             7    6     1       0.2929338713E-03       7    6    1         0.1641356104E-01      0.1641616399E-01
          0                46           2             7    6     1       0.2934891430E-03       7    6    1         0.1644452007E-01      0.1644713536E-01
          0                47           2             7    6     1       0.2940456100E-03       7    6    1         0.1647554560E-01      0.1647816941E-01
          0                48           2             7    6     1       0.2946360275E-03       7    6    1         0.1650847314E-01      0.1651109525E-01
          0                49           2             7    6     1       0.2951900128E-03       7    6    1         0.1653935819E-01      0.1654198937E-01
          0                50           2             7    6     1       0.2957635887E-03       7    6    1         0.1657134074E-01      0.1657398494E-01
                                                   Max.-Head-Change                         Max.-Flux-Residual
  Residual-Control   Outer-Iter.   Inner-Iter.     Column Row Layer    Maximum-Head-Change  Column Row Layer    Maximum-Flux-Residual          L2-NORM 
          0                51           2             7    6     1       0.2963357813E-03       7    6    1         0.1660324504E-01      0.1660587964E-01
          0                52           2             7    6     1       0.2969080712E-03       7    6    1         0.1663515422E-01      0.1663780249E-01
          0                53           2             7    6     1       0.2974973743E-03       7    6    1         0.1666801611E-01      0.1667067094E-01
          0                54           2             7    6     1       0.2980514365E-03       7    6    1         0.1669890254E-01      0.1670155848E-01
          0                55           2             7    6     1       0.2986420277E-03       7    6    1         0.1673183555E-01      0.1673450164E-01
          0                56           2             7    6     1       0.2992130174E-03       7    6    1         0.1676366935E-01      0.1676634056E-01
          0                57           2             7    6     1       0.2998024132E-03       7    6    1         0.1679653401E-01      0.1679920664E-01
          0                58           2             7    6     1       0.3003734876E-03       7    6    1         0.1682837133E-01      0.1683105151E-01
          0                59           2             7    6     1       0.3009628775E-03       7    6    1         0.1686123446E-01      0.1686392148E-01
          0                60           2             7    6     1       0.3015339524E-03       7    6    1         0.1689307060E-01      0.1689576197E-01
                                                   Max.-Head-Change                         Max.-Flux-Residual
  Residual-Control   Outer-Iter.   Inner-Iter.     Column Row Layer    Maximum-Head-Change  Column Row Layer    Maximum-Flux-Residual          L2-NORM 
          0                61           2             7    6     1       0.3021233422E-03       7    6    1         0.1692593251E-01      0.1692862637E-01
          0                62           2             7    6     1       0.3027114368E-03       7    6    1         0.1695872111E-01      0.1696141923E-01
          0                63           2             7    6     1       0.3032996236E-03       7    6    1         0.1699151426E-01      0.1699422551E-01
          0                64           2             7    6     1       0.3038878036E-03       7    6    1         0.1702430642E-01      0.1702701853E-01
          0                65           2             7    6     1       0.3044759848E-03       7    6    1         0.1705709802E-01      0.1705981630E-01
          0                66           2             7    6     1       0.3050641654E-03       7    6    1         0.1708988896E-01      0.1709261095E-01
          0                67           2             7    6     1       0.3056523459E-03       7    6    1         0.1712267930E-01      0.1712541112E-01
          0                68           2             7    6     1       0.3062575480E-03       7    6    1         0.1715642272E-01      0.1715915487E-01
          0                69           2             7    6     1       0.3068445236E-03       7    6    1         0.1718914419E-01      0.1719188657E-01
          0                70           2             7    6     1       0.3074327904E-03       7    6    1         0.1722193750E-01      0.1722468176E-01
                                                   Max.-Head-Change                         Max.-Flux-Residual
  Residual-Control   Outer-Iter.   Inner-Iter.     Column Row Layer    Maximum-Head-Change  Column Row Layer    Maximum-Flux-Residual          L2-NORM 
          0                71           2             7    6     1       0.3080379865E-03       7    6    1         0.1725567872E-01      0.1725843161E-01
          0                72           2             7    6     1       0.3086419841E-03       7    6    1         0.1728935203E-01      0.1729210994E-01
          0                73           2             7    6     1       0.3092290415E-03       7    6    1         0.1732207576E-01      0.1732483933E-01
          0                74           2             7    6     1       0.3098343157E-03       7    6    1         0.1735581979E-01      0.1735858646E-01
          0                75           2             7    6     1       0.3104383011E-03       7    6    1         0.1738949088E-01      0.1739226282E-01
          0                76           2             7    6     1       0.3110423781E-03       7    6    1         0.1742316647E-01      0.1742594549E-01
          0                77           2             7    6     1       0.3116464493E-03       7    6    1         0.1745684110E-01      0.1745963286E-01
          0                78           2             7    6     1       0.3122505202E-03       7    6    1         0.1749051509E-01      0.1749330557E-01
          0                79           2             7    6     1       0.3128545918E-03       7    6    1         0.1752418846E-01      0.1752698131E-01
          0                80           2             7    6     1       0.3134756851E-03       7    6    1         0.1755881485E-01      0.1756161612E-01
                                                   Max.-Head-Change                         Max.-Flux-Residual
  Residual-Control   Outer-Iter.   Inner-Iter.     Column Row Layer    Maximum-Head-Change  Column Row Layer    Maximum-Flux-Residual          L2-NORM 
          0                81           2             7    6     1       0.3140785495E-03       7    6    1         0.1759241922E-01      0.1759523137E-01
          0                82           2             7    6     1       0.3146827068E-03       7    6    1         0.1762609552E-01      0.1762890609E-01
          0                83           2             7    6     1       0.3153037954E-03       7    6    1         0.1766071970E-01      0.1766353745E-01
          0                84           2             7    6     1       0.3159066589E-03       7    6    1         0.1769432214E-01      0.1769715081E-01
          0                85           2             7    6     1       0.3165278402E-03       7    6    1         0.1772895022E-01      0.1773178222E-01
          0                86           2             7    6     1       0.3171477208E-03       7    6    1         0.1776350468E-01      0.1776634192E-01
          0                87           2             7    6     1       0.3177676943E-03       7    6    1         0.1779806371E-01      0.1780090538E-01
          0                88           2             7    6     1       0.3183876617E-03       7    6    1         0.1783262174E-01      0.1783547051E-01
          0                89           2             7    6     1       0.3190076294E-03       7    6    1         0.1786717912E-01      0.1787003301E-01
          0                90           2             7    6     1       0.3196105715E-03       7    6    1         0.1790078217E-01      0.1790364067E-01
                                                   Max.-Head-Change                         Max.-Flux-Residual
  Residual-Control   Outer-Iter.   Inner-Iter.     Column Row Layer    Maximum-Head-Change  Column Row Layer    Maximum-Flux-Residual          L2-NORM 
          0                91           2             7    6     1       0.3202487731E-03       7    6    1         0.1793635982E-01      0.1793922617E-01
          0                92           2             7    6     1       0.3208844697E-03       7    6    1         0.1797179625E-01      0.1797466963E-01
          0                93           2             7    6     1       0.3214862955E-03       7    6    1         0.1800533468E-01      0.1800821220E-01
          0                94           2             7    6     1       0.3221245770E-03       7    6    1         0.1804091484E-01      0.1804379487E-01
          0                95           2             7    6     1       0.3227602682E-03       7    6    1         0.1807634900E-01      0.1807924604E-01
          0                96           2             7    6     1       0.3233791184E-03       7    6    1         0.1811083915E-01      0.1811372775E-01
          0                97           2             7    6     1       0.3240161918E-03       7    6    1         0.1814634951E-01      0.1814925484E-01
          0                98           2             7    6     1       0.3246519687E-03       7    6    1         0.1818178649E-01      0.1818469673E-01
          0                99           2             7    6     1       0.3252878384E-03       7    6    1         0.1821722801E-01      0.1822013643E-01
          0               100           2             7    6     1       0.3259066760E-03       7    6    1         0.1825171484E-01      0.1825463580E-01
                                                   Max.-Head-Change                         Max.-Flux-Residual
  Residual-Control   Outer-Iter.   Inner-Iter.     Column Row Layer    Maximum-Head-Change  Column Row Layer    Maximum-Flux-Residual          L2-NORM 
          0               101           2             7    6     1       0.3265607762E-03       7    6    1         0.1828817629E-01      0.1829110588E-01
          0               102           2             7    6     1       0.3271953427E-03       7    6    1         0.1832354270E-01      0.1832647515E-01
          0               103           2             7    6     1       0.3278312990E-03       7    6    1         0.1835898641E-01      0.1836192203E-01
          0               104           2             7    6     1       0.3284671563E-03       7    6    1         0.1839442391E-01      0.1839736636E-01
          0               105           2             7    6     1       0.3291200472E-03       7    6    1         0.1843081479E-01      0.1843376476E-01
          0               106           2             7    6     1       0.3297546990E-03       7    6    1         0.1846618334E-01      0.1846914285E-01
          0               107           2             7    6     1       0.3304076769E-03       7    6    1         0.1850257774E-01      0.1850554752E-01
          0               108           2             7    6     1       0.3310423217E-03       7    6    1         0.1853794457E-01      0.1854090287E-01
          0               109           2             7    6     1       0.3317123279E-03       7    6    1         0.1857529135E-01      0.1857826849E-01
          0               110           2             7    6     1       0.3323457605E-03       7    6    1         0.1861058882E-01      0.1861356845E-01
                                                   Max.-Head-Change                         Max.-Flux-Residual
  Residual-Control   Outer-Iter.   Inner-Iter.     Column Row Layer    Maximum-Head-Change  Column Row Layer    Maximum-Flux-Residual          L2-NORM 
          0               111           2             7    6     1       0.3329988263E-03       7    6    1         0.1864698543E-01      0.1864997408E-01
          0               112           2             7    6     1       0.3336504927E-03       7    6    1         0.1868330289E-01      0.1868628309E-01
          0               113           2             7    6     1       0.3342852307E-03       7    6    1         0.1871867159E-01      0.1872168207E-01
          0               114           2             7    6     1       0.3349722600E-03       7    6    1         0.1875696833E-01      0.1875997941E-01
          0               115           2             7    6     1       0.3356044779E-03       7    6    1         0.1879219430E-01      0.1879520433E-01
          0               116           2             7    6     1       0.3362916890E-03       7    6    1         0.1883049978E-01      0.1883351861E-01
          0               117           2             7    6     1       0.3369238926E-03       7    6    1         0.1886572361E-01      0.1886874590E-01
          0               118           2             7    6     1       0.3375940767E-03       7    6    1         0.1890307414E-01      0.1890610544E-01
          0               119           2             7    6     1       0.3382615512E-03       7    6    1         0.1894027203E-01      0.1894330405E-01
          0               120           2             7    6     1       0.3389121916E-03       7    6    1         0.1897652643E-01      0.1897957406E-01
                                                   Max.-Head-Change                         Max.-Flux-Residual
  Residual-Control   Outer-Iter.   Inner-Iter.     Column Row Layer    Maximum-Head-Change  Column Row Layer    Maximum-Flux-Residual          L2-NORM 
          0               121           2             7    6     1       0.3395810605E-03       7    6    1         0.1901380115E-01      0.1901684807E-01
          0               122           2             7    6     1       0.3402486301E-03       7    6    1         0.1905100226E-01      0.1905405850E-01
          0               123           2             7    6     1       0.3409162924E-03       7    6    1         0.1908820786E-01      0.1909127037E-01
          0               124           2             7    6     1       0.3416009776E-03       7    6    1         0.1912636608E-01      0.1912943546E-01
          0               125           2             7    6     1       0.3422503893E-03       7    6    1         0.1916254812E-01      0.1916562145E-01
          0               126           2             7    6     1       0.3429363781E-03       7    6    1         0.1920077801E-01      0.1920386132E-01
          0               127           2             7    6     1       0.3436027247E-03       7    6    1         0.1923790705E-01      0.1924099880E-01
          0               128           2             7    6     1       0.3442875053E-03       7    6    1         0.1927606778E-01      0.1927915840E-01
          0               129           2             7    6     1       0.3449369082E-03       7    6    1         0.1931224661E-01      0.1931534785E-01
          0               130           2             7    6     1       0.3456399300E-03       7    6    1         0.1935142748E-01      0.1935453815E-01
                                                   Max.-Head-Change                         Max.-Flux-Residual
  Residual-Control   Outer-Iter.   Inner-Iter.     Column Row Layer    Maximum-Head-Change  Column Row Layer    Maximum-Flux-Residual          L2-NORM 
          0               131           2             7    6     1       0.3463220908E-03       7    6    1         0.1938943914E-01      0.1939255260E-01
          0               132           2             7    6     1       0.3469887119E-03       7    6    1         0.1942658003E-01      0.1942969796E-01
          0               133           2             7    6     1       0.3476905052E-03       7    6    1         0.1946568982E-01      0.1946882071E-01
          0               134           2             7    6     1       0.3483557225E-03       7    6    1         0.1950275059E-01      0.1950588145E-01
          0               135           2             7    6     1       0.3490576165E-03       7    6    1         0.1954186460E-01      0.1954500602E-01
          0               136           2             7    6     1       0.3497398581E-03       7    6    1         0.1957987722E-01      0.1958306972E-01
          0               137           2             7    6     1       0.3504235045E-03       7    6    1         0.1961796789E-01      0.1962107295E-01
          0               138           2             7    6     1       0.3511070498E-03       7    6    1         0.1965605222E-01      0.1965921614E-01
          0               139           2             7    6     1       0.3518076349E-03       7    6    1         0.1969508993E-01      0.1969825593E-01
          0               140           2             7    6     1       0.3525070018E-03       7    6    1         0.1973405858E-01      0.1973723406E-01
                                                   Max.-Head-Change                         Max.-Flux-Residual
  Residual-Control   Outer-Iter.   Inner-Iter.     Column Row Layer    Maximum-Head-Change  Column Row Layer    Maximum-Flux-Residual          L2-NORM 
          0               141           2             7    6     1       0.3532064562E-03       7    6    1         0.1977303138E-01      0.1977621360E-01
          0               142           2             7    6     1       0.3538888718E-03       7    6    1         0.1981104945E-01      0.1981423274E-01
          0               143           2             7    6     1       0.3545895386E-03       7    6    1         0.1985008882E-01      0.1985328487E-01
          0               144           2             7    6     1       0.3552888992E-03       7    6    1         0.1988905424E-01      0.1989225855E-01
          0               145           2             7    6     1       0.3559883543E-03       7    6    1         0.1992802419E-01      0.1993122920E-01
          0               146           2             7    6     1       0.3567048356E-03       7    6    1         0.1996794669E-01      0.1997115828E-01
          0               147           2             7    6     1       0.3574030658E-03       7    6    1         0.2000684644E-01      0.2001007250E-01
          0               148           2             7    6     1       0.3581026014E-03       7    6    1         0.2004581870E-01      0.2004904400E-01
          0               149           2             7    6     1       0.3588020437E-03       7    6    1         0.2008478502E-01      0.2008801319E-01
          0               150           2             7    6     1       0.3595185263E-03       7    6    1         0.2012470465E-01      0.2012795311E-01
                                                   Max.-Head-Change                         Max.-Flux-Residual
  Residual-Control   Outer-Iter.   Inner-Iter.     Column Row Layer    Maximum-Head-Change  Column Row Layer    Maximum-Flux-Residual          L2-NORM 
          0               151           2             7    6     1       0.3602337892E-03       7    6    1         0.2016455511E-01      0.2016779744E-01
          0               152           2             7    6     1       0.3609491399E-03       7    6    1         0.2020440974E-01      0.2020766893E-01
          0               153           2             7    6     1       0.3616474495E-03       7    6    1         0.2024330959E-01      0.2024657201E-01
          0               154           2             7    6     1       0.3623810494E-03       7    6    1         0.2028418454E-01      0.2028745598E-01
          0               155           2             7    6     1       0.3630780508E-03       7    6    1         0.2032300956E-01      0.2032628608E-01
          0               156           2             7    6     1       0.3638117453E-03       7    6    1         0.2036388830E-01      0.2036717104E-01
          0               157           2             7    6     1       0.3645257749E-03       7    6    1         0.2040366512E-01      0.2040695345E-01
          0               158           2             7    6     1       0.3652582491E-03       7    6    1         0.2044447391E-01      0.2044777133E-01
          0               159           2             7    6     1       0.3659553305E-03       7    6    1         0.2048330046E-01      0.2048663706E-01
          0               160           2             7    6     1       0.3667060561E-03       7    6    1         0.2052512959E-01      0.2052844808E-01
                                                   Max.-Head-Change                         Max.-Flux-Residual
  Residual-Control   Outer-Iter.   Inner-Iter.     Column Row Layer    Maximum-Head-Change  Column Row Layer    Maximum-Flux-Residual          L2-NORM 
          0               161           2             7    6     1       0.3674358989E-03       7    6    1         0.2056578855E-01      0.2056911330E-01
          0               162           2             7    6     1       0.3681502047E-03       7    6    1         0.2060557710E-01      0.2060890015E-01
          0               163           2             7    6     1       0.3688826608E-03       7    6    1         0.2064638107E-01      0.2064971482E-01
          0               164           2             7    6     1       0.3696138133E-03       7    6    1         0.2068711121E-01      0.2069044930E-01
          0               165           2             7    6     1       0.3703450606E-03       7    6    1         0.2072784590E-01      0.2073119245E-01
          0               166           2             7    6     1       0.3710763010E-03       7    6    1         0.2076857943E-01      0.2077193370E-01
          0               167           2             7    6     1       0.3718075421E-03       7    6    1         0.2080931222E-01      0.2081267021E-01
          0               168           2             7    6     1       0.3725728564E-03       7    6    1         0.2085195159E-01      0.2085532350E-01
          0               169           2             7    6     1       0.3732846140E-03       7    6    1         0.2089159200E-01      0.2089496375E-01
          0               170           2             7    6     1       0.3740342921E-03       7    6    1         0.2093335465E-01      0.2093674225E-01
                                                   Max.-Head-Change                         Max.-Flux-Residual
  Residual-Control   Outer-Iter.   Inner-Iter.     Column Row Layer    Maximum-Head-Change  Column Row Layer    Maximum-Flux-Residual          L2-NORM 
          0               171           2             7    6     1       0.3747812456E-03       7    6    1         0.2097496380E-01      0.2097835488E-01
          0               172           2             7    6     1       0.3755283960E-03       7    6    1         0.2101658316E-01      0.2101997923E-01
          0               173           2             7    6     1       0.3762584945E-03       7    6    1         0.2105724729E-01      0.2106065157E-01
          0               174           2             7    6     1       0.3770238931E-03       7    6    1         0.2109988667E-01      0.2110329779E-01
          0               175           2             7    6     1       0.3777867558E-03       7    6    1         0.2114238307E-01      0.2114574304E-01
          0               176           2             7    6     1       0.3785157252E-03       7    6    1         0.2118298155E-01      0.2118647800E-01
          0               177           2             7    6     1       0.3792641678E-03       7    6    1         0.2122466952E-01      0.2122809560E-01
          0               178           2             7    6     1       0.3800282492E-03       7    6    1         0.2126723191E-01      0.2127067498E-01
          0               179           2             7    6     1       0.3807741679E-03       7    6    1         0.2130877678E-01      0.2131222551E-01
          0               180           2             7    6     1       0.3815384316E-03       7    6    1         0.2135134779E-01      0.2135480767E-01
                                                   Max.-Head-Change                         Max.-Flux-Residual
  Residual-Control   Outer-Iter.   Inner-Iter.     Column Row Layer    Maximum-Head-Change  Column Row Layer    Maximum-Flux-Residual          L2-NORM 
          0               181           2             7    6     1       0.3823013756E-03       7    6    1         0.2139384403E-01      0.2139730801E-01
          0               182           2             7    6     1       0.3830644157E-03       7    6    1         0.2143634482E-01      0.2143981369E-01
          0               183           2             7    6     1       0.3838274483E-03       7    6    1         0.2147884441E-01      0.2148232819E-01
          0               184           2             7    6     1       0.3845904815E-03       7    6    1         0.2152134325E-01      0.2152482998E-01
          0               185           2             7    6     1       0.3853535143E-03       7    6    1         0.2156384128E-01      0.2156733614E-01
          0               186           2             7    6     1       0.3861335874E-03       7    6    1         0.2160729222E-01      0.2161079086E-01
          0               187           2             7    6     1       0.3868953940E-03       7    6    1         0.2164971991E-01      0.2165322950E-01
          0               188           2             7    6     1       0.3876755561E-03       7    6    1         0.2169317421E-01      0.2169669437E-01
          0               189           2             7    6     1       0.3884373564E-03       7    6    1         0.2173559993E-01      0.2173912509E-01
          0               190           2             7    6     1       0.3892175183E-03       7    6    1         0.2177905263E-01      0.2178258633E-01
                                                   Max.-Head-Change                         Max.-Flux-Residual
  Residual-Control   Outer-Iter.   Inner-Iter.     Column Row Layer    Maximum-Head-Change  Column Row Layer    Maximum-Flux-Residual          L2-NORM 
          0               191           2             7    6     1       0.3899963591E-03       7    6    1         0.2182243043E-01      0.2182596921E-01
          0               192           2             7    6     1       0.3907752943E-03       7    6    1         0.2186581272E-01      0.2186936594E-01
          0               193           2             7    6     1       0.3915542231E-03       7    6    1         0.2190919385E-01      0.2191274473E-01
          0               194           2             7    6     1       0.3923331526E-03       7    6    1         0.2195257420E-01      0.2195614058E-01
          0               195           2             7    6     1       0.3931291227E-03       7    6    1         0.2199690740E-01      0.2200048555E-01
          0               196           2             7    6     1       0.3939068242E-03       7    6    1         0.2204021728E-01      0.2204378987E-01
          0               197           2             7    6     1       0.3946858423E-03       7    6    1         0.2208360015E-01      0.2208718945E-01
          0               198           2             7    6     1       0.3954818064E-03       7    6    1         0.2212793055E-01      0.2213152807E-01
          0               199           2             7    6     1       0.3962765497E-03       7    6    1         0.2217219167E-01      0.2217304210E-01
          0               200           2             7    6     1       0.1164569175E-03       7    6    1         0.6513255585E-02      0.6515064194E-02

    ------------------------------------------------
       NWT REQUIRED          200 OUTER ITERATIONS 
       AND A TOTAL OF        400 INNER ITERATIONS.
    ------------------------------------------------

 NO OUTPUT CONTROL FOR STRESS PERIOD   10   TIME STEP    4



 STREAM LISTING     PERIOD     10   STEP        4

 LAYER ROW COL. STREAM  RCH.  FLOW INTO     FLOW TO   FLOW OUT OF   OVRLND.     DIRECT     STREAM       STREAM     STREAM     STREAM   STREAMBED  STREAMBED
                SEG.NO.  NO.  STRM. RCH.    AQUIFER    STRM. RCH.    RUNOFF     PRECIP       ET          HEAD       DEPTH      WIDTH   CONDCTNC.   GRADIENT

   1    1    1     1     1    7.0000E+00  1.1914E-09   7.0000E+00  0.000E+00  0.000E+00  0.000E+00  1.09385E+03  7.984E-01  6.970E+00  3.137E-10  1.266E+00
   1    2    2     1     2    7.0000E+00  1.8485E-09   7.0000E+00  0.000E+00  0.000E+00  0.000E+00  1.08886E+03  7.975E-01  6.954E+00  4.868E-10  1.266E+00
   1    3    3     1     3    7.0000E+00  1.5861E-09   7.0000E+00  0.000E+00  0.000E+00  0.000E+00  1.08322E+03  7.978E-01  6.960E+00  4.176E-10  1.266E+00
   1    3    4     1     4    7.0000E+00  1.4678E-09   7.0000E+00  0.000E+00  0.000E+00  0.000E+00  1.07821E+03  7.980E-01  6.963E+00  3.865E-10  1.266E+00
   1    4    5     2     1    5.0000E+00  2.6928E-01   4.7307E+00  0.000E+00  0.000E+00  0.000E+00  1.07239E+03  4.523E-01  1.200E+01  7.800E-02  1.151E+00
   1    5    6     2     2    4.7307E+00  2.0633E-01   4.5244E+00  0.000E+00  0.000E+00  0.000E+00  1.06695E+03  4.389E-01  1.200E+01  6.000E-02  1.146E+00
   1    6    6     2     3    4.5244E+00  2.0562E-01   4.3188E+00  0.000E+00  0.000E+00  0.000E+00  1.06222E+03  4.271E-01  1.200E+01  6.000E-02  1.142E+00
   1    7    6     2     4    4.3188E+00  2.0490E-01   4.1139E+00  0.000E+00  0.000E+00  0.000E+00  1.05749E+03  4.151E-01  1.200E+01  6.000E-02  1.138E+00
   1    8    6     2     5    4.1139E+00  2.0417E-01   3.9097E+00  0.000E+00  0.000E+00  0.000E+00  1.05276E+03  4.029E-01  1.200E+01  6.000E-02  1.134E+00
   1    3    5     3     1    2.0000E+00  2.8252E-01   1.7175E+00  0.000E+00  0.000E+00  0.000E+00  1.07555E+03  1.909E+00  9.636E+00  7.227E-02  1.955E+00
   1    3    6     3     2    1.7175E+00  2.4905E-01   1.4684E+00  0.000E+00  0.000E+00  0.000E+00  1.07264E+03  1.727E+00  8.909E+00  6.682E-02  1.864E+00
   1    3    7     3     3    1.4684E+00  1.9718E-01   1.2712E+00  0.000E+00  0.000E+00  0.000E+00  1.06987E+03  1.555E+00  8.218E+00  5.547E-02  1.777E+00
   1    4    8     3     4    1.2712E+00  2.2567E-01   1.0456E+00  0.000E+00  0.000E+00  0.000E+00  1.06682E+03  1.364E+00  7.455E+00  6.709E-02  1.682E+00
   1    5    8     3     5    1.0456E+00  1.5790E-01   8.8768E-01  0.000E+00  0.000E+00  0.000E+00  1.06362E+03  1.164E+00  6.655E+00  4.991E-02  1.582E+00
   1    6    8     3     6    8.8768E-01  5.5980E-02   8.3170E-01  0.000E+00  0.000E+00  0.000E+00  1.06158E+03  1.036E+00  6.145E+00  1.844E-02  1.518E+00
   1    5   10     4     1    1.0000E+01  9.0919E-02   9.9091E+00  0.000E+00  0.000E+00  0.000E+00  1.07836E+03  6.368E-01  1.000E+01  2.500E-02  1.212E+00
   1    5    9     4     2    9.9091E+00  1.8158E-01   9.7275E+00  0.000E+00  0.000E+00  0.000E+00  1.07154E+03  6.315E-01  1.000E+01  5.000E-02  1.211E+00
   1    6    8     4     3    9.7275E+00  1.2689E-01   9.6006E+00  0.000E+00  0.000E+00  0.000E+00  1.06381E+03  6.256E-01  1.000E+01  3.500E-02  1.209E+00
   1    6    8     5     1    1.0432E+01  2.2686E-09   1.0432E+01  0.000E+00  0.000E+00  0.000E+00  1.05868E+03  6.790E-01  1.542E+01  6.166E-10  1.226E+00
   1    7    7     5     2    1.0432E+01  2.8306E-09   1.0432E+01  0.000E+00  0.000E+00  0.000E+00  1.05418E+03  6.784E-01  1.539E+01  7.695E-10  1.226E+00
   1    8    7     5     3    1.0432E+01  1.9868E-09   1.0432E+01  0.000E+00  0.000E+00  0.000E+00  1.04993E+03  6.794E-01  1.543E+01  5.400E-10  1.226E+00
   1    8    6     5     4    1.0432E+01  1.4217E-09   1.0432E+01  0.000E+00  0.000E+00  0.000E+00  1.04693E+03  6.800E-01  1.545E+01  3.863E-10  1.227E+00
   1    9    6     6     1    1.0432E+01  2.2309E-01   1.0209E+01  0.000E+00  0.000E+00  0.000E+00  1.04345E+03  7.181E-01  1.200E+01  6.000E-02  1.239E+00
   1   10    7     6     2    1.0209E+01  2.2253E-01   9.9867E+00  0.000E+00  0.000E+00  0.000E+00  1.03889E+03  7.088E-01  1.200E+01  6.000E-02  1.236E+00
   1   11    7     6     3    9.9867E+00  2.2196E-01   9.7647E+00  0.000E+00  0.000E+00  0.000E+00  1.03434E+03  6.994E-01  1.200E+01  6.000E-02  1.233E+00
   1   12    7     6     4    9.7647E+00  2.2139E-01   9.5433E+00  0.000E+00  0.000E+00  0.000E+00  1.02978E+03  6.899E-01  1.200E+01  6.000E-02  1.230E+00
   1   13    7     6     5    9.5433E+00  8.8398E-02   9.4549E+00  0.000E+00  0.000E+00  0.000E+00  1.02659E+03  6.833E-01  1.200E+01  2.400E-02  1.228E+00
   1   14    9     7     1    1.5000E+02  2.9539E-08   1.5000E+02  0.000E+00  0.000E+00  0.000E+00  1.03986E+03  2.283E+00  5.528E+01  5.591E-09  1.761E+00
   1   13    8     7     2    1.5000E+02  3.2486E-14   1.5000E+02  0.000E+00  0.000E+00  0.000E+00  1.03478E+03  2.283E+00  5.527E+01  6.150E-15  1.761E+00
   1   13    7     7     3    1.5000E+02  2.9539E-08   1.5000E+02  0.000E+00  0.000E+00  0.000E+00  1.02970E+03  2.283E+00  5.528E+01  5.591E-09  1.761E+00
   1   13    6     8     1    1.5945E+02  2.4941E-14   1.5945E+02  0.000E+00  0.000E+00  0.000E+00  1.02475E+03  2.874E+00  4.167E+01  4.246E-15  1.958E+00
   1   13    5     8     2    1.5945E+02  2.4941E-10   1.5945E+02  0.000E+00  0.000E+00  0.000E+00  1.01850E+03  2.874E+00  4.167E+01  4.246E-11  1.958E+00
   1   13    4     8     3    1.5945E+02  2.0642E-32   1.5945E+02  0.000E+00  0.000E+00  0.000E+00  1.01226E+03  2.882E+00  4.179E+01  4.259E-33  1.616E+00
   1   13    3     8     4    1.5945E+02  7.4396E-08   1.5945E+02  0.000E+00  0.000E+00  0.000E+00  1.00600E+03  2.880E+00  4.175E+01  4.255E-08  5.828E-01
   1   13    2     8     5    1.5945E+02  3.3940E-07   1.5945E+02  0.000E+00  0.000E+00  0.000E+00  9.99757E+02  2.882E+00  4.179E+01  4.259E-06  2.657E-02
   1   13    1     8     6    1.5945E+02 -7.6415E-01   1.6022E+02  0.000E+00  0.000E+00  0.000E+00  9.94760E+02  2.885E+00  4.183E+01  2.557E+00 -9.960E-02
   1    6    8     9     1    3.9097E+00  0.0000E+00   3.9097E+00  0.000E+00  0.000E+00  0.000E+00  1.07881E+03  3.068E-01  4.000E+00  0.000E+00  1.102E+00





UNSATURATED ZONE PACKAGE VOLUMETRIC BUDGET FOR  TIME STEP     4 STRESS PERIOD   10
  ------------------------------------------------------------------------------



     CUMULATIVE VOLUMES      L**3       RATES FOR THIS TIME STEP      L**3/T
     ------------------                 ------------------------

           IN:                                      IN:
           ---                                      ---
        INFILTRATION =    50388597.0593          INFILTRATION =          28.9378

          OUT:                                     OUT:
          ----                                     ----
              UZF ET =   561364948.7425                UZF ET =           0.9154
        UZF RECHARGE =   595721253.7754          UZF RECHARGE =          25.5555

            IN - OUT = -1106697605.4586              IN - OUT =           2.4669

          STORAGE:                                 STORAGE:
          --------                                 --------
      STORAGE CHANGE = -1106690824.4052        STORAGE CHANGE =           2.4669

 PERCENT DISCREPANCY IS DIFFERENCE BETWEEN IN-OUT MINUS CHANGE IN STORAGE
 DIVIDED BY THE AVERAGE OF IN AND OUT TIMES 100

 PERCENT DISCREPANCY =          -0.00     PERCENT DISCREPANCY =           0.00







         ****FAILED TO MEET SOLVER CONVERGENCE CRITERIA IN TIME STEP    4 OF STRESS PERIOD   10****
1
  VOLUMETRIC BUDGET FOR ENTIRE MODEL AT END OF TIME STEP    4, STRESS PERIOD  10
  ------------------------------------------------------------------------------

     CUMULATIVE VOLUMES      L**3       RATES FOR THIS TIME STEP      L**3/T
     ------------------                 ------------------------

           IN:                                      IN:
           ---                                      ---
             STORAGE =    16145972.0000               STORAGE =          11.4593
       CONSTANT HEAD =           0.0000         CONSTANT HEAD =           0.0000
               WELLS =           0.0000                 WELLS =           0.0000
     HEAD DEP BOUNDS =    25285778.0000       HEAD DEP BOUNDS =           1.0324
      STREAM LEAKAGE =    96090536.0000        STREAM LEAKAGE =           3.6354
        UZF RECHARGE =   595721344.0000          UZF RECHARGE =          25.5555
               GW ET =           0.0000                 GW ET =           0.0000
     SURFACE LEAKAGE =           0.0000       SURFACE LEAKAGE =           0.0000

            TOTAL IN =   733243648.0000              TOTAL IN =          41.6825

          OUT:                                     OUT:
          ----                                     ----
             STORAGE =   637809664.0000               STORAGE =          27.4375
       CONSTANT HEAD =           0.0000         CONSTANT HEAD =           0.0000
               WELLS =     1059111.1250                 WELLS =          12.0903
     HEAD DEP BOUNDS =     6836645.0000       HEAD DEP BOUNDS =           0.2682
      STREAM LEAKAGE =    52831940.0000        STREAM LEAKAGE =           0.7641
        UZF RECHARGE =           0.0000          UZF RECHARGE =           0.0000
               GW ET =    34658856.0000                 GW ET =           1.1227
     SURFACE LEAKAGE =           0.0000       SURFACE LEAKAGE =           0.0000

           TOTAL OUT =   733196288.0000             TOTAL OUT =          41.6829

            IN - OUT =       47360.0000              IN - OUT =      -3.4332E-04

 PERCENT DISCREPANCY =           0.01     PERCENT DISCREPANCY =          -0.00






         TIME SUMMARY AT END OF TIME STEP    4 IN STRESS PERIOD   10
                    SECONDS     MINUTES      HOURS       DAYS        YEARS
                    -----------------------------------------------------------
   TIME STEP LENGTH  87600.      1460.0      24.333      1.0139     2.77588E-03
 STRESS PERIOD TIME 3.50400E+05  5840.0      97.333      4.0556     1.11035E-02
         TOTAL TIME 2.40024E+07 4.00040E+05  6667.3      277.81     0.76059    
1
 
 SOLVING FOR HEAD 
                                                   Max.-Head-Change                         Max.-Flux-Residual
  Residual-Control   Outer-Iter.   Inner-Iter.     Column Row Layer    Maximum-Head-Change  Column Row Layer    Maximum-Flux-Residual          L2-NORM 
          0                 1           2             7    6     1      -0.2091214652E+00       7    6    1        -0.1141280690E+02      0.1163437780E+02
          0                 2           2             7    6     1       0.2403459875E+00       7    6    1         0.1323154392E+02      0.1323953099E+02
          0                 3           2             7    6     1      -0.2140234124E-01       7    6    1        -0.1190858690E+01      0.1204623683E+01
          0                 4           2             7    6     1       0.1704354555E-02       7    6    1         0.9540068188E-01      0.1191241834E+00
          0                 5           2             8    3     1       0.2412157520E-03       7    6    1        -0.6702176347E-02      0.3241349965E-01
          0                 6           1             8    3     1       0.1082828484E-03       8    3    1         0.2814941180E-02      0.1418335633E-01
          0                 7           1             8    3     1       0.4860822764E-04       8    3    1         0.1263637865E-02      0.6349161927E-02
          0                 8           1             8    3     1       0.2182006221E-04       8    3    1         0.5672467790E-03      0.2844049974E-02
          0                 9           1             8    3     1       0.9794859934E-05       8    3    1         0.2546346560E-03      0.1274081304E-02

    ------------------------------------------------
       NWT REQUIRED            9 OUTER ITERATIONS 
       AND A TOTAL OF         14 INNER ITERATIONS.
    ------------------------------------------------

 OUTPUT CONTROL FOR STRESS PERIOD   10   TIME STEP    5
    PRINT BUDGET
    SAVE BUDGET
 UBUDSV SAVING "         STORAGE" ON UNIT102 AT TIME STEP     5, STRESS PERIOD   10
 UBUDSV SAVING "   CONSTANT HEAD" ON UNIT102 AT TIME STEP     5, STRESS PERIOD   10
 UBUDSV SAVING "FLOW RIGHT FACE " ON UNIT102 AT TIME STEP     5, STRESS PERIOD   10
 UBUDSV SAVING "FLOW FRONT FACE " ON UNIT102 AT TIME STEP     5, STRESS PERIOD   10

  HEAD DEP BOUNDS   PERIOD   10   STEP     5
 BOUNDARY      1   LAYER   1   ROW    13   COL     1   RATE   -0.268734    
 BOUNDARY      2   LAYER   1   ROW    14   COL     9   RATE     1.03227    



 STREAM LISTING     PERIOD     10   STEP        5

 LAYER ROW COL. STREAM  RCH.  FLOW INTO     FLOW TO   FLOW OUT OF   OVRLND.     DIRECT     STREAM       STREAM     STREAM     STREAM   STREAMBED  STREAMBED
                SEG.NO.  NO.  STRM. RCH.    AQUIFER    STRM. RCH.    RUNOFF     PRECIP       ET          HEAD       DEPTH      WIDTH   CONDCTNC.   GRADIENT

   1    1    1     1     1    7.0000E+00  1.1914E-09   7.0000E+00  0.000E+00  0.000E+00  0.000E+00  1.09385E+03  7.984E-01  6.970E+00  3.137E-10  1.266E+00
   1    2    2     1     2    7.0000E+00  1.8485E-09   7.0000E+00  0.000E+00  0.000E+00  0.000E+00  1.08886E+03  7.975E-01  6.954E+00  4.868E-10  1.266E+00
   1    3    3     1     3    7.0000E+00  1.5861E-09   7.0000E+00  0.000E+00  0.000E+00  0.000E+00  1.08322E+03  7.978E-01  6.960E+00  4.176E-10  1.266E+00
   1    3    4     1     4    7.0000E+00  1.4678E-09   7.0000E+00  0.000E+00  0.000E+00  0.000E+00  1.07821E+03  7.980E-01  6.963E+00  3.865E-10  1.266E+00
   1    4    5     2     1    5.0000E+00  2.6928E-01   4.7307E+00  0.000E+00  0.000E+00  0.000E+00  1.07239E+03  4.523E-01  1.200E+01  7.800E-02  1.151E+00
   1    5    6     2     2    4.7307E+00  2.0633E-01   4.5244E+00  0.000E+00  0.000E+00  0.000E+00  1.06695E+03  4.389E-01  1.200E+01  6.000E-02  1.146E+00
   1    6    6     2     3    4.5244E+00  2.0562E-01   4.3188E+00  0.000E+00  0.000E+00  0.000E+00  1.06222E+03  4.271E-01  1.200E+01  6.000E-02  1.142E+00
   1    7    6     2     4    4.3188E+00  2.0490E-01   4.1139E+00  0.000E+00  0.000E+00  0.000E+00  1.05749E+03  4.151E-01  1.200E+01  6.000E-02  1.138E+00
   1    8    6     2     5    4.1139E+00  2.0417E-01   3.9097E+00  0.000E+00  0.000E+00  0.000E+00  1.05276E+03  4.029E-01  1.200E+01  6.000E-02  1.134E+00
   1    3    5     3     1    2.0000E+00  2.8252E-01   1.7175E+00  0.000E+00  0.000E+00  0.000E+00  1.07555E+03  1.909E+00  9.636E+00  7.227E-02  1.955E+00
   1    3    6     3     2    1.7175E+00  2.4905E-01   1.4684E+00  0.000E+00  0.000E+00  0.000E+00  1.07264E+03  1.727E+00  8.909E+00  6.682E-02  1.864E+00
   1    3    7     3     3    1.4684E+00  1.9718E-01   1.2712E+00  0.000E+00  0.000E+00  0.000E+00  1.06987E+03  1.555E+00  8.218E+00  5.547E-02  1.777E+00
   1    4    8     3     4    1.2712E+00  2.2567E-01   1.0456E+00  0.000E+00  0.000E+00  0.000E+00  1.06682E+03  1.364E+00  7.455E+00  6.709E-02  1.682E+00
   1    5    8     3     5    1.0456E+00  1.5790E-01   8.8768E-01  0.000E+00  0.000E+00  0.000E+00  1.06362E+03  1.164E+00  6.655E+00  4.991E-02  1.582E+00
   1    6    8     3     6    8.8768E-01  5.5980E-02   8.3170E-01  0.000E+00  0.000E+00  0.000E+00  1.06158E+03  1.036E+00  6.145E+00  1.844E-02  1.518E+00
   1    5   10     4     1    1.0000E+01  9.0919E-02   9.9091E+00  0.000E+00  0.000E+00  0.000E+00  1.07836E+03  6.368E-01  1.000E+01  2.500E-02  1.212E+00
   1    5    9     4     2    9.9091E+00  1.8158E-01   9.7275E+00  0.000E+00  0.000E+00  0.000E+00  1.07154E+03  6.315E-01  1.000E+01  5.000E-02  1.211E+00
   1    6    8     4     3    9.7275E+00  1.2689E-01   9.6006E+00  0.000E+00  0.000E+00  0.000E+00  1.06381E+03  6.256E-01  1.000E+01  3.500E-02  1.209E+00
   1    6    8     5     1    1.0432E+01  2.2686E-09   1.0432E+01  0.000E+00  0.000E+00  0.000E+00  1.05868E+03  6.790E-01  1.542E+01  6.166E-10  1.226E+00
   1    7    7     5     2    1.0432E+01  2.8306E-09   1.0432E+01  0.000E+00  0.000E+00  0.000E+00  1.05418E+03  6.784E-01  1.539E+01  7.695E-10  1.226E+00
   1    8    7     5     3    1.0432E+01  1.9868E-09   1.0432E+01  0.000E+00  0.000E+00  0.000E+00  1.04993E+03  6.794E-01  1.543E+01  5.400E-10  1.226E+00
   1    8    6     5     4    1.0432E+01  1.4217E-09   1.0432E+01  0.000E+00  0.000E+00  0.000E+00  1.04693E+03  6.800E-01  1.545E+01  3.863E-10  1.227E+00
   1    9    6     6     1    1.4342E+01  2.3224E-01   1.4110E+01  0.000E+00  0.000E+00  0.000E+00  1.04360E+03  8.706E-01  1.200E+01  6.000E-02  1.290E+00
   1   10    7     6     2    1.4110E+01  2.3172E-01   1.3878E+01  0.000E+00  0.000E+00  0.000E+00  1.03904E+03  8.621E-01  1.200E+01  6.000E-02  1.287E+00
   1   11    7     6     3    1.3878E+01  2.3121E-01   1.3647E+01  0.000E+00  0.000E+00  0.000E+00  1.03449E+03  8.535E-01  1.200E+01  6.000E-02  1.284E+00
   1   12    7     6     4    1.3647E+01  2.3069E-01   1.3416E+01  0.000E+00  0.000E+00  0.000E+00  1.02994E+03  8.448E-01  1.200E+01  6.000E-02  1.282E+00
   1   13    7     6     5    1.3416E+01  9.2131E-02   1.3324E+01  0.000E+00  0.000E+00  0.000E+00  1.02675E+03  8.388E-01  1.200E+01  2.400E-02  1.280E+00
   1   14    9     7     1    1.5000E+02  2.9539E-08   1.5000E+02  0.000E+00  0.000E+00  0.000E+00  1.03986E+03  2.283E+00  5.528E+01  5.591E-09  1.761E+00
   1   13    8     7     2    1.5000E+02  3.2486E-14   1.5000E+02  0.000E+00  0.000E+00  0.000E+00  1.03478E+03  2.283E+00  5.527E+01  6.150E-15  1.761E+00
   1   13    7     7     3    1.5000E+02  2.9539E-08   1.5000E+02  0.000E+00  0.000E+00  0.000E+00  1.02970E+03  2.283E+00  5.528E+01  5.591E-09  1.761E+00
   1   13    6     8     1    1.6332E+02  2.5278E-09   1.6332E+02  0.000E+00  0.000E+00  0.000E+00  1.02477E+03  2.900E+00  4.205E+01  4.285E-10  1.967E+00
   1   13    5     8     2    1.6332E+02  2.5388E-32   1.6332E+02  0.000E+00  0.000E+00  0.000E+00  1.01853E+03  2.908E+00  4.217E+01  4.297E-33  1.969E+00
   1   13    4     8     3    1.6332E+02  0.0000E+00   1.6332E+02  0.000E+00  0.000E+00  0.000E+00  1.01228E+03  2.908E+00  4.217E+01  0.000E+00  1.624E+00
   1   13    3     8     4    1.6332E+02  7.5544E-07   1.6332E+02  0.000E+00  0.000E+00  0.000E+00  1.00603E+03  2.906E+00  4.213E+01  4.293E-07  5.865E-01
   1   13    2     8     5    1.6332E+02  3.8226E-07   1.6332E+02  0.000E+00  0.000E+00  0.000E+00  9.99783E+02  2.908E+00  4.217E+01  4.297E-06  2.965E-02
   1   13    1     8     6    1.6332E+02 -7.3876E-01   1.6406E+02  0.000E+00  0.000E+00  0.000E+00  9.94786E+02  2.911E+00  4.220E+01  2.580E+00 -9.543E-02
   1    6    8     9     1    3.2842E-08  0.0000E+00   3.2842E-08  0.000E+00  0.000E+00  0.000E+00  1.07850E+03  5.254E-06  4.000E+00  0.000E+00  1.000E+00



 UBDSV3 SAVING "     NETRECHARGE" ON UNIT 100 AT TIME STEP     5, STRESS PERIOD  10
 UBDSV3 SAVING "    NETDISCHARGE" ON UNIT 101 AT TIME STEP     5, STRESS PERIOD  10
 UBDSV3 SAVING "           GW ET" ON UNIT  61 AT TIME STEP     5, STRESS PERIOD  10
 UBDSV3 SAVING "    UZF RECHARGE" ON UNIT  61 AT TIME STEP     5, STRESS PERIOD  10
 UBDSV3 SAVING " SURFACE LEAKAGE" ON UNIT  61 AT TIME STEP     5, STRESS PERIOD  10
 UBDSV3 SAVING "       HORT+DUNN" ON UNIT  61 AT TIME STEP     5, STRESS PERIOD  10
 UBDSV3 SAVING "  STORAGE CHANGE" ON UNIT  61 AT TIME STEP     5, STRESS PERIOD  10


UNSATURATED ZONE PACKAGE VOLUMETRIC BUDGET FOR  TIME STEP     5 STRESS PERIOD   10
  ------------------------------------------------------------------------------



     CUMULATIVE VOLUMES      L**3       RATES FOR THIS TIME STEP      L**3/T
     ------------------                 ------------------------

           IN:                                      IN:
           ---                                      ---
        INFILTRATION =    50462838.0622          INFILTRATION =           0.8475

          OUT:                                     OUT:
          ----                                     ----
              UZF ET =   561447401.1171                UZF ET =           0.9412
        UZF RECHARGE =   597961943.4014          UZF RECHARGE =          25.5786

            IN - OUT = -1108946506.4563              IN - OUT =         -25.6724

          STORAGE:                                 STORAGE:
          --------                                 --------
      STORAGE CHANGE = -1108938718.6839        STORAGE CHANGE =         -25.6609

 PERCENT DISCREPANCY IS DIFFERENCE BETWEEN IN-OUT MINUS CHANGE IN STORAGE
 DIVIDED BY THE AVERAGE OF IN AND OUT TIMES 100

 PERCENT DISCREPANCY =          -0.00     PERCENT DISCREPANCY =          -0.04






1
  VOLUMETRIC BUDGET FOR ENTIRE MODEL AT END OF TIME STEP    5, STRESS PERIOD  10
  ------------------------------------------------------------------------------

     CUMULATIVE VOLUMES      L**3       RATES FOR THIS TIME STEP      L**3/T
     ------------------                 ------------------------

           IN:                                      IN:
           ---                                      ---
             STORAGE =    16148403.0000               STORAGE =       2.7751E-02
       CONSTANT HEAD =           0.0000         CONSTANT HEAD =           0.0000
               WELLS =           0.0000                 WELLS =           0.0000
     HEAD DEP BOUNDS =    25376204.0000       HEAD DEP BOUNDS =           1.0323
      STREAM LEAKAGE =    96412552.0000        STREAM LEAKAGE =           3.6760
        UZF RECHARGE =   597962048.0000          UZF RECHARGE =          25.5786
               GW ET =           0.0000                 GW ET =           0.0000
     SURFACE LEAKAGE =           0.0000       SURFACE LEAKAGE =           0.0000

            TOTAL IN =   735899200.0000              TOTAL IN =          30.3146

          OUT:                                     OUT:
          ----                                     ----
             STORAGE =   640278272.0000               STORAGE =          28.1803
       CONSTANT HEAD =           0.0000         CONSTANT HEAD =           0.0000
               WELLS =     1059111.1250                 WELLS =           0.0000
     HEAD DEP BOUNDS =     6860186.0000       HEAD DEP BOUNDS =           0.2687
      STREAM LEAKAGE =    52896656.0000        STREAM LEAKAGE =           0.7388
        UZF RECHARGE =           0.0000          UZF RECHARGE =           0.0000
               GW ET =    34757200.0000                 GW ET =           1.1227
     SURFACE LEAKAGE =           0.0000       SURFACE LEAKAGE =           0.0000

           TOTAL OUT =   735851392.0000             TOTAL OUT =          30.3105

            IN - OUT =       47808.0000              IN - OUT =       4.1428E-03

 PERCENT DISCREPANCY =           0.01     PERCENT DISCREPANCY =           0.01






         TIME SUMMARY AT END OF TIME STEP    5 IN STRESS PERIOD   10
                    SECONDS     MINUTES      HOURS       DAYS        YEARS
                    -----------------------------------------------------------
   TIME STEP LENGTH  87600.      1460.0      24.333      1.0139     2.77588E-03
 STRESS PERIOD TIME 4.38000E+05  7300.0      121.67      5.0694     1.38794E-02
         TOTAL TIME 2.40900E+07 4.01500E+05  6691.7      278.82     0.76337    
1
 
 SOLVING FOR HEAD 
                                                   Max.-Head-Change                         Max.-Flux-Residual
  Residual-Control   Outer-Iter.   Inner-Iter.     Column Row Layer    Maximum-Head-Change  Column Row Layer    Maximum-Flux-Residual          L2-NORM 
          0                 1           2             7    6     1      -0.2812377305E+00       7    6    1        -0.1534723368E+02      0.1550962071E+02
          0                 2           2             7    6     1       0.3185054431E+00       7    6    1         0.1753464495E+02      0.1754068075E+02
          0                 3           2             7    6     1      -0.2836380014E-01       7    6    1        -0.1578155278E+01      0.1589846761E+01
          0                 4           2             7    6     1       0.2258450527E-02       7    6    1         0.1264262355E+00      0.1452147883E+00
          0                 5           2             8    3     1       0.2408759983E-03       7    6    1        -0.8882041861E-02      0.3293396271E-01
          0                 6           1             8    3     1       0.1081305619E-03       8    3    1         0.2810977415E-02      0.1417749730E-01
          0                 7           1             8    3     1       0.4853996909E-04       8    3    1         0.1261861202E-02      0.6344123596E-02
          0                 8           1             8    3     1       0.2178946713E-04       8    3    1         0.5664504371E-03      0.2841755364E-02
          0                 9           1             8    3     1       0.9781146595E-05       8    3    1         0.2542777185E-03      0.1273052151E-02

    ------------------------------------------------
       NWT REQUIRED            9 OUTER ITERATIONS 
       AND A TOTAL OF         14 INNER ITERATIONS.
    ------------------------------------------------

 NO OUTPUT CONTROL FOR STRESS PERIOD   10   TIME STEP    6
 
 SOLVING FOR HEAD 
                                                   Max.-Head-Change                         Max.-Flux-Residual
  Residual-Control   Outer-Iter.   Inner-Iter.     Column Row Layer    Maximum-Head-Change  Column Row Layer    Maximum-Flux-Residual          L2-NORM 
          0                 1           2             7    6     1      -0.2816478882E+00       7    6    1        -0.1537012446E+02      0.1552941109E+02
          0                 2           2             7    6     1       0.3185481459E+00       7    6    1         0.1753692693E+02      0.1754291348E+02
          0                 3           2             7    6     1      -0.2836727933E-01       7    6    1        -0.1578363414E+01      0.1590069935E+01
          0                 4           2             7    6     1       0.2258787459E-02       7    6    1         0.1264430559E+00      0.1452029044E+00
          0                 5           2             8    3     1       0.2405350005E-03       7    6    1        -0.8883177897E-02      0.3290831295E-01
          0                 6           1             8    3     1       0.1079776913E-03       8    3    1         0.2806999027E-02      0.1416512624E-01
          0                 7           1             8    3     1       0.4847143553E-04       8    3    1         0.1260077673E-02      0.6338591242E-02
          0                 8           1             8    3     1       0.2175874161E-04       8    3    1         0.5656508483E-03      0.2839290949E-02
          0                 9           1             8    2     1       0.9774590435E-05       8    3    1         0.2539192445E-03      0.1271954758E-02

    ------------------------------------------------
       NWT REQUIRED            9 OUTER ITERATIONS 
       AND A TOTAL OF         14 INNER ITERATIONS.
    ------------------------------------------------

 NO OUTPUT CONTROL FOR STRESS PERIOD   10   TIME STEP    7
 
 SOLVING FOR HEAD 
                                                   Max.-Head-Change                         Max.-Flux-Residual
  Residual-Control   Outer-Iter.   Inner-Iter.     Column Row Layer    Maximum-Head-Change  Column Row Layer    Maximum-Flux-Residual          L2-NORM 
          0                 1           2             7    6     1      -0.2820276144E+00       7    6    1        -0.1539130957E+02      0.1554777084E+02
          0                 2           2             7    6     1       0.3185876286E+00       7    6    1         0.1753903907E+02      0.1754498143E+02
          0                 3           2             7    6     1      -0.2837050505E-01       7    6    1        -0.1578556271E+01      0.1590276229E+01
          0                 4           2             7    6     1       0.2259098901E-02       7    6    1         0.1264586393E+00      0.1451908576E+00
          0                 5           2             8    3     1       0.2401959004E-03       7    6    1        -0.8884231034E-02      0.3288350842E-01
          0                 6           1             8    3     1       0.1078256456E-03       8    3    1         0.2803042655E-02      0.1415316580E-01
          0                 7           1             8    3     1       0.4840325989E-04       8    3    1         0.1258303702E-02      0.6333257710E-02
          0                 8           1             8    2     1       0.2173896045E-04       8    3    1         0.5648554164E-03      0.2836949575E-02
          0                 9           1             8    2     1       0.9774659715E-05       8    2    1         0.2537646835E-03      0.1270891664E-02

    ------------------------------------------------
       NWT REQUIRED            9 OUTER ITERATIONS 
       AND A TOTAL OF         14 INNER ITERATIONS.
    ------------------------------------------------

 NO OUTPUT CONTROL FOR STRESS PERIOD   10   TIME STEP    8
 
 SOLVING FOR HEAD 
                                                   Max.-Head-Change                         Max.-Flux-Residual
  Residual-Control   Outer-Iter.   Inner-Iter.     Column Row Layer    Maximum-Head-Change  Column Row Layer    Maximum-Flux-Residual          L2-NORM 
          0                 1           2             7    6     1      -0.2823796173E+00       7    6    1        -0.1541094107E+02      0.1556482946E+02
          0                 2           2             7    6     1       0.3186241783E+00       7    6    1         0.1754099647E+02      0.1754689898E+02
          0                 3           2             7    6     1      -0.2837349929E-01       7    6    1        -0.1578735183E+01      0.1590466924E+01
          0                 4           2             7    6     1       0.2259387096E-02       7    6    1         0.1264730939E+00      0.1451785231E+00
          0                 5           2             8    3     1       0.2398587717E-03       7    6    1        -0.8885208526E-02      0.3285940125E-01
          0                 6           1             8    3     1       0.1076744749E-03       8    3    1         0.2799109238E-02      0.1414155517E-01
          0                 7           1             8    2     1       0.4834793570E-04       8    3    1         0.1256539926E-02      0.6328041278E-02
          0                 8           1             8    2     1       0.2173906575E-04       8    2    1         0.5643783537E-03      0.2834587243E-02
          0                 9           1             8    2     1       0.9774669345E-05       8    2    1         0.2537657316E-03      0.1269858370E-02

    ------------------------------------------------
       NWT REQUIRED            9 OUTER ITERATIONS 
       AND A TOTAL OF         14 INNER ITERATIONS.
    ------------------------------------------------

 NO OUTPUT CONTROL FOR STRESS PERIOD   10   TIME STEP    9
 
 SOLVING FOR HEAD 
                                                   Max.-Head-Change                         Max.-Flux-Residual
  Residual-Control   Outer-Iter.   Inner-Iter.     Column Row Layer    Maximum-Head-Change  Column Row Layer    Maximum-Flux-Residual          L2-NORM 
          0                 1           2             7    6     1      -0.2827058012E+00       7    6    1        -0.1542912675E+02      0.1558064063E+02
          0                 2           2             7    6     1       0.3186580015E+00       7    6    1         0.1754280984E+02      0.1754867577E+02
          0                 3           2             7    6     1      -0.2837627721E-01       7    6    1        -0.1578901092E+01      0.1590642998E+01
          0                 4           2             7    6     1       0.2259653707E-02       7    6    1         0.1264864963E+00      0.1451659215E+00
          0                 5           2             8    3     1       0.2395203119E-03       7    6    1        -0.8886115370E-02      0.3283596419E-01
          0                 6           1             8    2     1       0.1075266204E-03       8    3    1         0.2795160296E-02      0.1413027916E-01
          0                 7           1             8    2     1       0.4834805326E-04       8    2    1         0.1255186958E-02      0.6322991562E-02
          0                 8           1             8    2     1       0.2173903499E-04       8    2    1         0.5643793291E-03      0.2832334167E-02
          0                 9           1             8    2     1       0.9774617947E-05       8    2    1         0.2537651912E-03      0.1268853470E-02

    ------------------------------------------------
       NWT REQUIRED            9 OUTER ITERATIONS 
       AND A TOTAL OF         14 INNER ITERATIONS.
    ------------------------------------------------

 OUTPUT CONTROL FOR STRESS PERIOD   10   TIME STEP   10
    PRINT BUDGET
    SAVE BUDGET
 UBUDSV SAVING "         STORAGE" ON UNIT102 AT TIME STEP    10, STRESS PERIOD   10
 UBUDSV SAVING "   CONSTANT HEAD" ON UNIT102 AT TIME STEP    10, STRESS PERIOD   10
 UBUDSV SAVING "FLOW RIGHT FACE " ON UNIT102 AT TIME STEP    10, STRESS PERIOD   10
 UBUDSV SAVING "FLOW FRONT FACE " ON UNIT102 AT TIME STEP    10, STRESS PERIOD   10

  HEAD DEP BOUNDS   PERIOD   10   STEP    10
 BOUNDARY      1   LAYER   1   ROW    13   COL     1   RATE   -0.270977    
 BOUNDARY      2   LAYER   1   ROW    14   COL     9   RATE     1.03146    



 STREAM LISTING     PERIOD     10   STEP       10

 LAYER ROW COL. STREAM  RCH.  FLOW INTO     FLOW TO   FLOW OUT OF   OVRLND.     DIRECT     STREAM       STREAM     STREAM     STREAM   STREAMBED  STREAMBED
                SEG.NO.  NO.  STRM. RCH.    AQUIFER    STRM. RCH.    RUNOFF     PRECIP       ET          HEAD       DEPTH      WIDTH   CONDCTNC.   GRADIENT

   1    1    1     1     1    7.0000E+00  1.1914E-09   7.0000E+00  0.000E+00  0.000E+00  0.000E+00  1.09385E+03  7.984E-01  6.970E+00  3.137E-10  1.266E+00
   1    2    2     1     2    7.0000E+00  1.8485E-09   7.0000E+00  0.000E+00  0.000E+00  0.000E+00  1.08886E+03  7.975E-01  6.954E+00  4.868E-10  1.266E+00
   1    3    3     1     3    7.0000E+00  1.5861E-09   7.0000E+00  0.000E+00  0.000E+00  0.000E+00  1.08322E+03  7.978E-01  6.960E+00  4.176E-10  1.266E+00
   1    3    4     1     4    7.0000E+00  1.4678E-09   7.0000E+00  0.000E+00  0.000E+00  0.000E+00  1.07821E+03  7.980E-01  6.963E+00  3.865E-10  1.266E+00
   1    4    5     2     1    5.0000E+00  2.6928E-01   4.7307E+00  0.000E+00  0.000E+00  0.000E+00  1.07239E+03  4.523E-01  1.200E+01  7.800E-02  1.151E+00
   1    5    6     2     2    4.7307E+00  2.0633E-01   4.5244E+00  0.000E+00  0.000E+00  0.000E+00  1.06695E+03  4.389E-01  1.200E+01  6.000E-02  1.146E+00
   1    6    6     2     3    4.5244E+00  2.0562E-01   4.3188E+00  0.000E+00  0.000E+00  0.000E+00  1.06222E+03  4.271E-01  1.200E+01  6.000E-02  1.142E+00
   1    7    6     2     4    4.3188E+00  2.0490E-01   4.1139E+00  0.000E+00  0.000E+00  0.000E+00  1.05749E+03  4.151E-01  1.200E+01  6.000E-02  1.138E+00
   1    8    6     2     5    4.1139E+00  2.0417E-01   3.9097E+00  0.000E+00  0.000E+00  0.000E+00  1.05276E+03  4.029E-01  1.200E+01  6.000E-02  1.134E+00
   1    3    5     3     1    2.0000E+00  2.8252E-01   1.7175E+00  0.000E+00  0.000E+00  0.000E+00  1.07555E+03  1.909E+00  9.636E+00  7.227E-02  1.955E+00
   1    3    6     3     2    1.7175E+00  2.4905E-01   1.4684E+00  0.000E+00  0.000E+00  0.000E+00  1.07264E+03  1.727E+00  8.909E+00  6.682E-02  1.864E+00
   1    3    7     3     3    1.4684E+00  1.9718E-01   1.2712E+00  0.000E+00  0.000E+00  0.000E+00  1.06987E+03  1.555E+00  8.218E+00  5.547E-02  1.777E+00
   1    4    8     3     4    1.2712E+00  2.2567E-01   1.0456E+00  0.000E+00  0.000E+00  0.000E+00  1.06682E+03  1.364E+00  7.455E+00  6.709E-02  1.682E+00
   1    5    8     3     5    1.0456E+00  1.5790E-01   8.8768E-01  0.000E+00  0.000E+00  0.000E+00  1.06362E+03  1.164E+00  6.655E+00  4.991E-02  1.582E+00
   1    6    8     3     6    8.8768E-01  5.5980E-02   8.3170E-01  0.000E+00  0.000E+00  0.000E+00  1.06158E+03  1.036E+00  6.145E+00  1.844E-02  1.518E+00
   1    5   10     4     1    1.0000E+01  9.0919E-02   9.9091E+00  0.000E+00  0.000E+00  0.000E+00  1.07836E+03  6.368E-01  1.000E+01  2.500E-02  1.212E+00
   1    5    9     4     2    9.9091E+00  1.8158E-01   9.7275E+00  0.000E+00  0.000E+00  0.000E+00  1.07154E+03  6.315E-01  1.000E+01  5.000E-02  1.211E+00
   1    6    8     4     3    9.7275E+00  1.2689E-01   9.6006E+00  0.000E+00  0.000E+00  0.000E+00  1.06381E+03  6.256E-01  1.000E+01  3.500E-02  1.209E+00
   1    6    8     5     1    1.0432E+01  2.2686E-09   1.0432E+01  0.000E+00  0.000E+00  0.000E+00  1.05868E+03  6.790E-01  1.542E+01  6.166E-10  1.226E+00
   1    7    7     5     2    1.0432E+01  2.8306E-09   1.0432E+01  0.000E+00  0.000E+00  0.000E+00  1.05418E+03  6.784E-01  1.539E+01  7.695E-10  1.226E+00
   1    8    7     5     3    1.0432E+01  1.9868E-09   1.0432E+01  0.000E+00  0.000E+00  0.000E+00  1.04993E+03  6.794E-01  1.543E+01  5.400E-10  1.226E+00
   1    8    6     5     4    1.0432E+01  1.4217E-09   1.0432E+01  0.000E+00  0.000E+00  0.000E+00  1.04693E+03  6.800E-01  1.545E+01  3.863E-10  1.227E+00
   1    9    6     6     1    1.4342E+01  2.3224E-01   1.4110E+01  0.000E+00  0.000E+00  0.000E+00  1.04360E+03  8.706E-01  1.200E+01  6.000E-02  1.290E+00
   1   10    7     6     2    1.4110E+01  2.3172E-01   1.3878E+01  0.000E+00  0.000E+00  0.000E+00  1.03904E+03  8.621E-01  1.200E+01  6.000E-02  1.287E+00
   1   11    7     6     3    1.3878E+01  2.3121E-01   1.3647E+01  0.000E+00  0.000E+00  0.000E+00  1.03449E+03  8.535E-01  1.200E+01  6.000E-02  1.284E+00
   1   12    7     6     4    1.3647E+01  2.3069E-01   1.3416E+01  0.000E+00  0.000E+00  0.000E+00  1.02994E+03  8.448E-01  1.200E+01  6.000E-02  1.282E+00
   1   13    7     6     5    1.3416E+01  9.2131E-02   1.3324E+01  0.000E+00  0.000E+00  0.000E+00  1.02675E+03  8.388E-01  1.200E+01  2.400E-02  1.280E+00
   1   14    9     7     1    1.5000E+02  2.9539E-08   1.5000E+02  0.000E+00  0.000E+00  0.000E+00  1.03986E+03  2.283E+00  5.528E+01  5.591E-09  1.761E+00
   1   13    8     7     2    1.5000E+02  3.2486E-14   1.5000E+02  0.000E+00  0.000E+00  0.000E+00  1.03478E+03  2.283E+00  5.527E+01  6.150E-15  1.761E+00
   1   13    7     7     3    1.5000E+02  2.9539E-08   1.5000E+02  0.000E+00  0.000E+00  0.000E+00  1.02970E+03  2.283E+00  5.528E+01  5.591E-09  1.761E+00
   1   13    6     8     1    1.6332E+02  2.5278E-09   1.6332E+02  0.000E+00  0.000E+00  0.000E+00  1.02477E+03  2.900E+00  4.205E+01  4.285E-10  1.967E+00
   1   13    5     8     2    1.6332E+02  2.5388E-32   1.6332E+02  0.000E+00  0.000E+00  0.000E+00  1.01853E+03  2.908E+00  4.217E+01  4.297E-33  1.969E+00
   1   13    4     8     3    1.6332E+02  2.0836E-09   1.6332E+02  0.000E+00  0.000E+00  0.000E+00  1.01228E+03  2.901E+00  4.207E+01  4.287E-10  1.620E+00
   1   13    3     8     4    1.6332E+02  7.2529E-09   1.6332E+02  0.000E+00  0.000E+00  0.000E+00  1.00603E+03  2.906E+00  4.213E+01  4.294E-09  5.631E-01
   1   13    2     8     5    1.6332E+02  2.8679E-08   1.6332E+02  0.000E+00  0.000E+00  0.000E+00  9.99783E+02  2.908E+00  4.217E+01  4.297E-06  2.225E-03
   1   13    1     8     6    1.6332E+02 -8.8994E-01   1.6421E+02  0.000E+00  0.000E+00  0.000E+00  9.94786E+02  2.911E+00  4.221E+01  2.581E+00 -1.149E-01
   1    6    8     9     1    3.2842E-08  0.0000E+00   3.2842E-08  0.000E+00  0.000E+00  0.000E+00  1.07850E+03  5.254E-06  4.000E+00  0.000E+00  1.000E+00



 UBDSV3 SAVING "     NETRECHARGE" ON UNIT 100 AT TIME STEP    10, STRESS PERIOD  10
 UBDSV3 SAVING "    NETDISCHARGE" ON UNIT 101 AT TIME STEP    10, STRESS PERIOD  10
 UBDSV3 SAVING "           GW ET" ON UNIT  61 AT TIME STEP    10, STRESS PERIOD  10
 UBDSV3 SAVING "    UZF RECHARGE" ON UNIT  61 AT TIME STEP    10, STRESS PERIOD  10
 UBDSV3 SAVING " SURFACE LEAKAGE" ON UNIT  61 AT TIME STEP    10, STRESS PERIOD  10
 UBDSV3 SAVING "       HORT+DUNN" ON UNIT  61 AT TIME STEP    10, STRESS PERIOD  10
 UBDSV3 SAVING "  STORAGE CHANGE" ON UNIT  61 AT TIME STEP    10, STRESS PERIOD  10


UNSATURATED ZONE PACKAGE VOLUMETRIC BUDGET FOR  TIME STEP    10 STRESS PERIOD   10
  ------------------------------------------------------------------------------



     CUMULATIVE VOLUMES      L**3       RATES FOR THIS TIME STEP      L**3/T
     ------------------                 ------------------------

           IN:                                      IN:
           ---                                      ---
        INFILTRATION =    50834043.0767          INFILTRATION =           0.8475

          OUT:                                     OUT:
          ----                                     ----
              UZF ET =   561866629.6380                UZF ET =           0.9687
        UZF RECHARGE =   609176286.2009          UZF RECHARGE =          25.6199

            IN - OUT = -1120208872.7622              IN - OUT =         -25.7411

          STORAGE:                                 STORAGE:
          --------                                 --------
      STORAGE CHANGE = -1120201085.0180        STORAGE CHANGE =         -25.7411

 PERCENT DISCREPANCY IS DIFFERENCE BETWEEN IN-OUT MINUS CHANGE IN STORAGE
 DIVIDED BY THE AVERAGE OF IN AND OUT TIMES 100

 PERCENT DISCREPANCY =          -0.00     PERCENT DISCREPANCY =           0.00






1
  VOLUMETRIC BUDGET FOR ENTIRE MODEL AT END OF TIME STEP   10, STRESS PERIOD  10
  ------------------------------------------------------------------------------

     CUMULATIVE VOLUMES      L**3       RATES FOR THIS TIME STEP      L**3/T
     ------------------                 ------------------------

           IN:                                      IN:
           ---                                      ---
             STORAGE =    16149497.0000               STORAGE =           0.0000
       CONSTANT HEAD =           0.0000         CONSTANT HEAD =           0.0000
               WELLS =           0.0000                 WELLS =           0.0000
     HEAD DEP BOUNDS =    25828124.0000       HEAD DEP BOUNDS =           1.0315
      STREAM LEAKAGE =    98022632.0000        STREAM LEAKAGE =           3.6760
        UZF RECHARGE =   609176448.0000          UZF RECHARGE =          25.6200
               GW ET =           0.0000                 GW ET =           0.0000
     SURFACE LEAKAGE =           0.0000       SURFACE LEAKAGE =           0.0000

            TOTAL IN =   749176704.0000              TOTAL IN =          30.3274

          OUT:                                     OUT:
          ----                                     ----
             STORAGE =   652579584.0000               STORAGE =          28.0401
       CONSTANT HEAD =           0.0000         CONSTANT HEAD =           0.0000
               WELLS =     1059111.1250                 WELLS =           0.0000
     HEAD DEP BOUNDS =     6978497.5000       HEAD DEP BOUNDS =           0.2710
      STREAM LEAKAGE =    53261088.0000        STREAM LEAKAGE =           0.8899
        UZF RECHARGE =           0.0000          UZF RECHARGE =           0.0000
               GW ET =    35248820.0000                 GW ET =           1.1223
     SURFACE LEAKAGE =           0.0000       SURFACE LEAKAGE =           0.0000

           TOTAL OUT =   749127104.0000             TOTAL OUT =          30.3232

            IN - OUT =       49600.0000              IN - OUT =       4.1542E-03

 PERCENT DISCREPANCY =           0.01     PERCENT DISCREPANCY =           0.01






         TIME SUMMARY AT END OF TIME STEP   10 IN STRESS PERIOD   10
                    SECONDS     MINUTES      HOURS       DAYS        YEARS
                    -----------------------------------------------------------
   TIME STEP LENGTH  87600.      1460.0      24.333      1.0139     2.77588E-03
 STRESS PERIOD TIME 8.76000E+05  14600.      243.33      10.139     2.77588E-02
         TOTAL TIME 2.45280E+07 4.08800E+05  6813.3      283.89     0.77725    
1
 
 SOLVING FOR HEAD 
                                                   Max.-Head-Change                         Max.-Flux-Residual
  Residual-Control   Outer-Iter.   Inner-Iter.     Column Row Layer    Maximum-Head-Change  Column Row Layer    Maximum-Flux-Residual          L2-NORM 
          0                 1           2             7    6     1      -0.2830083574E+00       7    6    1        -0.1544598951E+02      0.1559531188E+02
          0                 2           2             7    6     1       0.3186893298E+00       7    6    1         0.1754449142E+02      0.1755063417E+02
          0                 3           2             7    6     1      -0.2837885677E-01       7    6    1        -0.1579055084E+01      0.1590831599E+01
          0                 4           2             7    6     1       0.2259900547E-02       7    6    1         0.1264989342E+00      0.1451546323E+00
          0                 5           2             8    3     1       0.2391838095E-03       7    6    1        -0.8886957501E-02      0.3281307129E-01
          0                 6           1             8    2     1       0.1075266426E-03       8    2    1         0.2791550395E-02      0.1411926016E-01
          0                 7           1             8    2     1       0.4834787755E-04       8    2    1         0.1255186337E-02      0.6318053911E-02
          0                 8           1             8    2     1       0.2173887279E-04       8    2    1         0.5643768867E-03      0.2830129604E-02
          0                 9           1             8    2     1       0.9774507898E-05       8    2    1         0.2537631279E-03      0.1267869475E-02

    ------------------------------------------------
       NWT REQUIRED            9 OUTER ITERATIONS 
       AND A TOTAL OF         14 INNER ITERATIONS.
    ------------------------------------------------

 NO OUTPUT CONTROL FOR STRESS PERIOD   10   TIME STEP   11
 
 SOLVING FOR HEAD 
                                                   Max.-Head-Change                         Max.-Flux-Residual
  Residual-Control   Outer-Iter.   Inner-Iter.     Column Row Layer    Maximum-Head-Change  Column Row Layer    Maximum-Flux-Residual          L2-NORM 
          0                 1           2             7    6     1      -0.2832891776E+00       7    6    1        -0.1546163583E+02      0.1560678894E+02
          0                 2           2             7    6     1       0.3187183655E+00       7    6    1         0.1754605179E+02      0.1755182618E+02
          0                 3           2             7    6     1      -0.2776011041E-01       7    6    1        -0.1544672752E+01      0.1556638707E+01
          0                 4           2             7    6     1       0.1595447943E-02       7    6    1         0.8924766143E-01      0.1141267027E+00
          0                 5           2             8    2     1       0.2391399631E-03       7    6    1        -0.6268043368E-02      0.3216408645E-01
          0                 6           1             8    2     1       0.1075260114E-03       8    2    1         0.2791542744E-02      0.1410254971E-01
          0                 7           1             8    2     1       0.4834740897E-04       8    2    1         0.1255178087E-02      0.6313093960E-02
          0                 8           1             8    2     1       0.2173857941E-04       8    2    1         0.5643710253E-03      0.2827949483E-02
          0                 9           1             8    2     1       0.9774339323E-05       8    2    1         0.2537595301E-03      0.1266897786E-02

    ------------------------------------------------
       NWT REQUIRED            9 OUTER ITERATIONS 
       AND A TOTAL OF         14 INNER ITERATIONS.
    ------------------------------------------------

 NO OUTPUT CONTROL FOR STRESS PERIOD   10   TIME STEP   12
 
 SOLVING FOR HEAD 
                                                   Max.-Head-Change                         Max.-Flux-Residual
  Residual-Control   Outer-Iter.   Inner-Iter.     Column Row Layer    Maximum-Head-Change  Column Row Layer    Maximum-Flux-Residual          L2-NORM 
          0                 1           2             7    6     1      -0.2835498799E+00       7    6    1        -0.1547615660E+02      0.1561618176E+02
          0                 2           2             7    6     1       0.3187452806E+00       7    6    1         0.1754749999E+02      0.1755321811E+02
          0                 3           2             7    6     1      -0.2278362644E-01       7    6    1        -0.1268215889E+01      0.1282768471E+01
          0                 4           2             7    6     1      -0.3766517124E-02       7    6    1        -0.2094832112E+00      0.2212827374E+00
          0                 5           2             7    6     1       0.2995675759E-03       7    6    1         0.1678334701E-01      0.3566451927E-01
          0                 6           1             8    2     1       0.1075247395E-03       8    2    1         0.2791518394E-02      0.1413375528E-01
          0                 7           1             8    2     1       0.4834665476E-04       8    2    1         0.1255162385E-02      0.6308378461E-02
          0                 8           1             8    2     1       0.2173815897E-04       8    2    1         0.5643618371E-03      0.2825743818E-02
          0                 9           1             8    2     1       0.9774113598E-05       8    2    1         0.2537544421E-03      0.1265915882E-02

    ------------------------------------------------
       NWT REQUIRED            9 OUTER ITERATIONS 
       AND A TOTAL OF         14 INNER ITERATIONS.
    ------------------------------------------------

 NO OUTPUT CONTROL FOR STRESS PERIOD   10   TIME STEP   13
 
 SOLVING FOR HEAD 
                                                   Max.-Head-Change                         Max.-Flux-Residual
  Residual-Control   Outer-Iter.   Inner-Iter.     Column Row Layer    Maximum-Head-Change  Column Row Layer    Maximum-Flux-Residual          L2-NORM 
          0                 1           2             7    6     1      -0.2822258680E+00       7    6    1        -0.1540420703E+02      0.1554048161E+02
          0                 2           2             7    6     1       0.3170633324E+00       7    6    1         0.1745486809E+02      0.1746056573E+02
          0                 3           2             7    6     1      -0.1774741318E-01       7    6    1        -0.9884278347E+00      0.1006986809E+01
          0                 4           2             7    6     1      -0.3127911216E-02       7    6    1        -0.1740455288E+00      0.1881542654E+00
          0                 5           2             7    6     1      -0.5519981290E-03       7    6    1        -0.3068815277E-01      0.4394647182E-01
          0                 6           1             8    2     1       0.1075228274E-03       7    6    1        -0.5417876801E-02      0.1508002111E-01
          0                 7           1             8    2     1       0.4834561367E-04       8    2    1         0.1255139202E-02      0.6375715824E-02
          0                 8           1             8    2     1       0.2173760923E-04       8    2    1         0.5643492946E-03      0.2828757907E-02
          0                 9           1             8    2     1       0.9773830097E-05       8    2    1         0.2537478580E-03      0.1265342851E-02

    ------------------------------------------------
       NWT REQUIRED            9 OUTER ITERATIONS 
       AND A TOTAL OF         14 INNER ITERATIONS.
    ------------------------------------------------

 NO OUTPUT CONTROL FOR STRESS PERIOD   10   TIME STEP   14
 
 SOLVING FOR HEAD 
                                                   Max.-Head-Change                         Max.-Flux-Residual
  Residual-Control   Outer-Iter.   Inner-Iter.     Column Row Layer    Maximum-Head-Change  Column Row Layer    Maximum-Flux-Residual          L2-NORM 
          0                 1           2             7    6     1      -0.2815154153E+00       7    6    1        -0.1536585830E+02      0.1549875479E+02
          0                 2           2             7    6     1       0.3158362183E+00       7    6    1         0.1738725951E+02      0.1739293300E+02
          0                 3           2             7    6     1      -0.1662267420E-01       7    6    1        -0.9259283433E+00      0.9456179028E+00
          0                 4           2             7    6     1      -0.2928985892E-02       7    6    1        -0.1629971700E+00      0.1779707358E+00
          0                 5           2             7    6     1      -0.5167934416E-03       7    6    1        -0.2873409790E-01      0.4258984753E-01
          0                 6           1             8    2     1       0.1075202706E-03       7    6    1        -0.5072028729E-02      0.1494976321E-01
          0                 7           1             8    2     1       0.4834428296E-04       8    2    1         0.1255108493E-02      0.6362310959E-02
          0                 8           1             8    2     1       0.2173692993E-04       8    2    1         0.5643333765E-03      0.2826112653E-02
          0                 9           1             8    2     1       0.9773488445E-05       8    2    1         0.2537397556E-03      0.1264397932E-02

    ------------------------------------------------
       NWT REQUIRED            9 OUTER ITERATIONS 
       AND A TOTAL OF         14 INNER ITERATIONS.
    ------------------------------------------------

 OUTPUT CONTROL FOR STRESS PERIOD   10   TIME STEP   15
    PRINT BUDGET
    PRINT HEAD FOR ALL LAYERS
    SAVE HEAD FOR ALL LAYERS
    SAVE BUDGET
 UBUDSV SAVING "         STORAGE" ON UNIT102 AT TIME STEP    15, STRESS PERIOD   10
 UBUDSV SAVING "   CONSTANT HEAD" ON UNIT102 AT TIME STEP    15, STRESS PERIOD   10
 UBUDSV SAVING "FLOW RIGHT FACE " ON UNIT102 AT TIME STEP    15, STRESS PERIOD   10
 UBUDSV SAVING "FLOW FRONT FACE " ON UNIT102 AT TIME STEP    15, STRESS PERIOD   10

  HEAD DEP BOUNDS   PERIOD   10   STEP    15
 BOUNDARY      1   LAYER   1   ROW    13   COL     1   RATE   -0.272797    
 BOUNDARY      2   LAYER   1   ROW    14   COL     9   RATE     1.03066    



 STREAM LISTING     PERIOD     10   STEP       15

 LAYER ROW COL. STREAM  RCH.  FLOW INTO     FLOW TO   FLOW OUT OF   OVRLND.     DIRECT     STREAM       STREAM     STREAM     STREAM   STREAMBED  STREAMBED
                SEG.NO.  NO.  STRM. RCH.    AQUIFER    STRM. RCH.    RUNOFF     PRECIP       ET          HEAD       DEPTH      WIDTH   CONDCTNC.   GRADIENT

   1    1    1     1     1    7.0000E+00  1.1914E-09   7.0000E+00  0.000E+00  0.000E+00  0.000E+00  1.09385E+03  7.984E-01  6.970E+00  3.137E-10  1.266E+00
   1    2    2     1     2    7.0000E+00  1.8485E-09   7.0000E+00  0.000E+00  0.000E+00  0.000E+00  1.08886E+03  7.975E-01  6.954E+00  4.868E-10  1.266E+00
   1    3    3     1     3    7.0000E+00  1.5861E-09   7.0000E+00  0.000E+00  0.000E+00  0.000E+00  1.08322E+03  7.978E-01  6.960E+00  4.176E-10  1.266E+00
   1    3    4     1     4    7.0000E+00  1.4678E-09   7.0000E+00  0.000E+00  0.000E+00  0.000E+00  1.07821E+03  7.980E-01  6.963E+00  3.865E-10  1.266E+00
   1    4    5     2     1    5.0000E+00  2.6928E-01   4.7307E+00  0.000E+00  0.000E+00  0.000E+00  1.07239E+03  4.523E-01  1.200E+01  7.800E-02  1.151E+00
   1    5    6     2     2    4.7307E+00  2.0633E-01   4.5244E+00  0.000E+00  0.000E+00  0.000E+00  1.06695E+03  4.389E-01  1.200E+01  6.000E-02  1.146E+00
   1    6    6     2     3    4.5244E+00  2.0562E-01   4.3188E+00  0.000E+00  0.000E+00  0.000E+00  1.06222E+03  4.271E-01  1.200E+01  6.000E-02  1.142E+00
   1    7    6     2     4    4.3188E+00  2.0490E-01   4.1139E+00  0.000E+00  0.000E+00  0.000E+00  1.05749E+03  4.151E-01  1.200E+01  6.000E-02  1.138E+00
   1    8    6     2     5    4.1139E+00  2.0417E-01   3.9097E+00  0.000E+00  0.000E+00  0.000E+00  1.05276E+03  4.029E-01  1.200E+01  6.000E-02  1.134E+00
   1    3    5     3     1    2.0000E+00  2.8252E-01   1.7175E+00  0.000E+00  0.000E+00  0.000E+00  1.07555E+03  1.909E+00  9.636E+00  7.227E-02  1.955E+00
   1    3    6     3     2    1.7175E+00  2.4905E-01   1.4684E+00  0.000E+00  0.000E+00  0.000E+00  1.07264E+03  1.727E+00  8.909E+00  6.682E-02  1.864E+00
   1    3    7     3     3    1.4684E+00  1.9718E-01   1.2712E+00  0.000E+00  0.000E+00  0.000E+00  1.06987E+03  1.555E+00  8.218E+00  5.547E-02  1.777E+00
   1    4    8     3     4    1.2712E+00  2.2567E-01   1.0456E+00  0.000E+00  0.000E+00  0.000E+00  1.06682E+03  1.364E+00  7.455E+00  6.709E-02  1.682E+00
   1    5    8     3     5    1.0456E+00  1.5790E-01   8.8768E-01  0.000E+00  0.000E+00  0.000E+00  1.06362E+03  1.164E+00  6.655E+00  4.991E-02  1.582E+00
   1    6    8     3     6    8.8768E-01  5.5980E-02   8.3170E-01  0.000E+00  0.000E+00  0.000E+00  1.06158E+03  1.036E+00  6.145E+00  1.844E-02  1.518E+00
   1    5   10     4     1    1.0000E+01  9.0919E-02   9.9091E+00  0.000E+00  0.000E+00  0.000E+00  1.07836E+03  6.368E-01  1.000E+01  2.500E-02  1.212E+00
   1    5    9     4     2    9.9091E+00  1.8158E-01   9.7275E+00  0.000E+00  0.000E+00  0.000E+00  1.07154E+03  6.315E-01  1.000E+01  5.000E-02  1.211E+00
   1    6    8     4     3    9.7275E+00  1.2689E-01   9.6006E+00  0.000E+00  0.000E+00  0.000E+00  1.06381E+03  6.256E-01  1.000E+01  3.500E-02  1.209E+00
   1    6    8     5     1    1.0432E+01  2.2686E-09   1.0432E+01  0.000E+00  0.000E+00  0.000E+00  1.05868E+03  6.790E-01  1.542E+01  6.166E-10  1.226E+00
   1    7    7     5     2    1.0432E+01  2.8306E-09   1.0432E+01  0.000E+00  0.000E+00  0.000E+00  1.05418E+03  6.784E-01  1.539E+01  7.695E-10  1.226E+00
   1    8    7     5     3    1.0432E+01  1.9868E-09   1.0432E+01  0.000E+00  0.000E+00  0.000E+00  1.04993E+03  6.794E-01  1.543E+01  5.400E-10  1.226E+00
   1    8    6     5     4    1.0432E+01  1.4217E-09   1.0432E+01  0.000E+00  0.000E+00  0.000E+00  1.04693E+03  6.800E-01  1.545E+01  3.863E-10  1.227E+00
   1    9    6     6     1    1.4342E+01  2.3224E-01   1.4110E+01  0.000E+00  0.000E+00  0.000E+00  1.04360E+03  8.706E-01  1.200E+01  6.000E-02  1.290E+00
   1   10    7     6     2    1.4110E+01  2.3172E-01   1.3878E+01  0.000E+00  0.000E+00  0.000E+00  1.03904E+03  8.621E-01  1.200E+01  6.000E-02  1.287E+00
   1   11    7     6     3    1.3878E+01  2.3121E-01   1.3647E+01  0.000E+00  0.000E+00  0.000E+00  1.03449E+03  8.535E-01  1.200E+01  6.000E-02  1.284E+00
   1   12    7     6     4    1.3647E+01  2.3069E-01   1.3416E+01  0.000E+00  0.000E+00  0.000E+00  1.02994E+03  8.448E-01  1.200E+01  6.000E-02  1.282E+00
   1   13    7     6     5    1.3416E+01  9.2131E-02   1.3324E+01  0.000E+00  0.000E+00  0.000E+00  1.02675E+03  8.388E-01  1.200E+01  2.400E-02  1.280E+00
   1   14    9     7     1    1.5000E+02  2.9539E-08   1.5000E+02  0.000E+00  0.000E+00  0.000E+00  1.03986E+03  2.283E+00  5.528E+01  5.591E-09  1.761E+00
   1   13    8     7     2    1.5000E+02  3.2486E-14   1.5000E+02  0.000E+00  0.000E+00  0.000E+00  1.03478E+03  2.283E+00  5.527E+01  6.150E-15  1.761E+00
   1   13    7     7     3    1.5000E+02  2.9539E-08   1.5000E+02  0.000E+00  0.000E+00  0.000E+00  1.02970E+03  2.283E+00  5.528E+01  5.591E-09  1.761E+00
   1   13    6     8     1    1.6332E+02  2.5278E-09   1.6332E+02  0.000E+00  0.000E+00  0.000E+00  1.02477E+03  2.900E+00  4.205E+01  4.285E-10  1.967E+00
   1   13    5     8     2    1.6332E+02  2.5388E-32   1.6332E+02  0.000E+00  0.000E+00  0.000E+00  1.01853E+03  2.908E+00  4.217E+01  4.297E-33  1.969E+00
   1   13    4     8     3    1.6332E+02  2.0876E-30   1.6332E+02  0.000E+00  0.000E+00  0.000E+00  1.01228E+03  2.908E+00  4.217E+01  4.297E-31  1.619E+00
   1   13    3     8     4    1.6332E+02  6.9792E-08   1.6332E+02  0.000E+00  0.000E+00  0.000E+00  1.00603E+03  2.906E+00  4.213E+01  4.294E-08  5.418E-01
   1   13    2     8     5    1.6332E+02 -2.5615E-01   1.6358E+02  0.000E+00  0.000E+00  0.000E+00  9.99784E+02  2.909E+00  4.218E+01  4.298E+00 -1.986E-02
   1   13    1     8     6    1.6358E+02 -1.0089E+00   1.6459E+02  0.000E+00  0.000E+00  0.000E+00  9.94788E+02  2.913E+00  4.224E+01  2.583E+00 -1.302E-01
   1    6    8     9     1    3.2842E-08  0.0000E+00   3.2842E-08  0.000E+00  0.000E+00  0.000E+00  1.07850E+03  5.254E-06  4.000E+00  0.000E+00  1.000E+00



 UBDSV3 SAVING "     NETRECHARGE" ON UNIT 100 AT TIME STEP    15, STRESS PERIOD  10
 UBDSV3 SAVING "    NETDISCHARGE" ON UNIT 101 AT TIME STEP    15, STRESS PERIOD  10
 UBDSV3 SAVING "           GW ET" ON UNIT  61 AT TIME STEP    15, STRESS PERIOD  10
 UBDSV3 SAVING "    UZF RECHARGE" ON UNIT  61 AT TIME STEP    15, STRESS PERIOD  10
 UBDSV3 SAVING " SURFACE LEAKAGE" ON UNIT  61 AT TIME STEP    15, STRESS PERIOD  10
 UBDSV3 SAVING "       HORT+DUNN" ON UNIT  61 AT TIME STEP    15, STRESS PERIOD  10
 UBDSV3 SAVING "  STORAGE CHANGE" ON UNIT  61 AT TIME STEP    15, STRESS PERIOD  10


UNSATURATED ZONE PACKAGE VOLUMETRIC BUDGET FOR  TIME STEP    15 STRESS PERIOD   10
  ------------------------------------------------------------------------------



     CUMULATIVE VOLUMES      L**3       RATES FOR THIS TIME STEP      L**3/T
     ------------------                 ------------------------

           IN:                                      IN:
           ---                                      ---
        INFILTRATION =    51205248.0912          INFILTRATION =           0.8475

          OUT:                                     OUT:
          ----                                     ----
              UZF ET =   562298307.2008                UZF ET =           0.9967
        UZF RECHARGE =   620464988.3933          UZF RECHARGE =          26.0205

            IN - OUT = -1131558047.5029              IN - OUT =         -26.1697

          STORAGE:                                 STORAGE:
          --------                                 --------
      STORAGE CHANGE = -1131550259.7995        STORAGE CHANGE =         -26.1697

 PERCENT DISCREPANCY IS DIFFERENCE BETWEEN IN-OUT MINUS CHANGE IN STORAGE
 DIVIDED BY THE AVERAGE OF IN AND OUT TIMES 100

 PERCENT DISCREPANCY =          -0.00     PERCENT DISCREPANCY =           0.00






1
              HEAD IN LAYER   1 AT END OF TIME STEP    15 IN STRESS PERIOD   10
  -----------------------------------------------------------------------------

           1       2       3       4       5       6       7       8       9      10
 ...................................................................................
   1  1012.30 1012.13 6999.00 6999.00 6999.00 6999.00 6999.00 6999.00 6999.00 6999.00
   2  1013.81 1012.02 1012.00 6999.00 6999.00 1014.39 1014.53 1014.45 6999.00 6999.00
   3  6999.00 1012.52 1012.12 1012.25 1013.30 1014.13 1014.60 1014.47 6999.00 6999.00
   4  1013.76 1013.03 1012.38 1012.21 1012.45 1012.55 1013.15 1014.28 1014.07 6999.00
   5  1013.71 1013.03 1012.39 1012.03 1012.11 1012.28 1012.32 1012.66 1013.13 1013.51
   6  1013.61 1012.90 1012.23 1011.81 1011.85 1012.02 1011.96 1012.35 1013.12 1014.38
   7  1013.49 1012.65 1011.98 1011.56 1011.60 1011.80 1011.83 1012.08 1013.22 6999.00
   8  6999.00 1012.21 1011.64 1011.24 1011.30 1011.53 1011.61 1012.28 1013.43 6999.00
   9  6999.00 1011.50 1011.10 1010.81 1010.93 1011.22 1011.41 1012.29 1013.55 6999.00
  10  6999.00 1010.41 1010.27 1010.24 1010.48 1010.88 1011.34 1012.32 1013.69 1014.53
  11  6999.00 1008.49 1008.77 1009.45 1009.98 1010.60 1011.29 1012.44 1013.98 6999.00
  12  1000.93 1004.55 1006.64 1008.31 1009.42 1010.39 1011.32 1012.80 1014.86 6999.00
  13   995.18  999.84 1004.41 1007.42 1009.07 1010.36 1011.67 1013.27 1015.78 6999.00
  14  6999.00 1005.01 1006.45 1008.46 1009.98 1011.31 1012.88 1015.25 1017.88 6999.00
  15  6999.00 6999.00 1009.03 1010.00 1011.06 1011.84 6999.00 6999.00 6999.00 6999.00

 HEAD WILL BE SAVED ON UNIT   62 AT END OF TIME STEP   15, STRESS PERIOD   10
1
  VOLUMETRIC BUDGET FOR ENTIRE MODEL AT END OF TIME STEP   15, STRESS PERIOD  10
  ------------------------------------------------------------------------------

     CUMULATIVE VOLUMES      L**3       RATES FOR THIS TIME STEP      L**3/T
     ------------------                 ------------------------

           IN:                                      IN:
           ---                                      ---
             STORAGE =    16149497.0000               STORAGE =           0.0000
       CONSTANT HEAD =           0.0000         CONSTANT HEAD =           0.0000
               WELLS =           0.0000                 WELLS =           0.0000
     HEAD DEP BOUNDS =    26279694.0000       HEAD DEP BOUNDS =           1.0307
      STREAM LEAKAGE =    99632712.0000        STREAM LEAKAGE =           3.6760
        UZF RECHARGE =   620465152.0000          UZF RECHARGE =          26.0205
               GW ET =           0.0000                 GW ET =           0.0000
     SURFACE LEAKAGE =           0.0000       SURFACE LEAKAGE =           0.0000

            TOTAL IN =   762527040.0000              TOTAL IN =          30.7271

          OUT:                                     OUT:
          ----                                     ----
             STORAGE =   664829440.0000               STORAGE =          28.0633
       CONSTANT HEAD =           0.0000         CONSTANT HEAD =           0.0000
               WELLS =     1059111.1250                 WELLS =           0.0000
     HEAD DEP BOUNDS =     7097677.0000       HEAD DEP BOUNDS =           0.2728
      STREAM LEAKAGE =    53749152.0000        STREAM LEAKAGE =           1.2650
        UZF RECHARGE =           0.0000          UZF RECHARGE =           0.0000
               GW ET =    35740268.0000                 GW ET =           1.1219
     SURFACE LEAKAGE =           0.0000       SURFACE LEAKAGE =           0.0000

           TOTAL OUT =   762475648.0000             TOTAL OUT =          30.7230

            IN - OUT =       51392.0000              IN - OUT =       4.1351E-03

 PERCENT DISCREPANCY =           0.01     PERCENT DISCREPANCY =           0.01






         TIME SUMMARY AT END OF TIME STEP   15 IN STRESS PERIOD   10
                    SECONDS     MINUTES      HOURS       DAYS        YEARS
                    -----------------------------------------------------------
   TIME STEP LENGTH  87600.      1460.0      24.333      1.0139     2.77588E-03
 STRESS PERIOD TIME 1.31400E+06  21900.      365.00      15.208     4.16381E-02
         TOTAL TIME 2.49660E+07 4.16100E+05  6935.0      288.96     0.79112    
1
 
 SOLVING FOR HEAD 
                                                   Max.-Head-Change                         Max.-Flux-Residual
  Residual-Control   Outer-Iter.   Inner-Iter.     Column Row Layer    Maximum-Head-Change  Column Row Layer    Maximum-Flux-Residual          L2-NORM 
          0                 1           2             7    6     1      -0.2820083393E+00       7    6    1        -0.1539315972E+02      0.1552262020E+02
          0                 2           2             7    6     1       0.3158865619E+00       7    6    1         0.1738998321E+02      0.1739561503E+02
          0                 3           2             7    6     1      -0.1674064807E-01       7    6    1        -0.9324939245E+00      0.9520710541E+00
          0                 4           2             7    6     1      -0.2949801975E-02       7    6    1        -0.1641545847E+00      0.1790137398E+00
          0                 5           2             7    6     1      -0.5204711318E-03       7    6    1        -0.2893840927E-01      0.4271142400E-01
          0                 6           1             8    2     1       0.1075170794E-03       7    6    1        -0.5108140381E-02      0.1495260638E-01
          0                 7           1             8    2     1       0.4834266824E-04       8    2    1         0.1255070390E-02      0.6358764493E-02
          0                 8           1             8    2     1       0.2173612344E-04       8    2    1         0.5643141463E-03      0.2824168355E-02
          0                 9           1             8    2     1       0.9773089643E-05       8    2    1         0.2537301699E-03      0.1263502400E-02

    ------------------------------------------------
       NWT REQUIRED            9 OUTER ITERATIONS 
       AND A TOTAL OF         14 INNER ITERATIONS.
    ------------------------------------------------

 NO OUTPUT CONTROL FOR STRESS PERIOD   10   TIME STEP   16
 
 SOLVING FOR HEAD 
                                                   Max.-Head-Change                         Max.-Flux-Residual
  Residual-Control   Outer-Iter.   Inner-Iter.     Column Row Layer    Maximum-Head-Change  Column Row Layer    Maximum-Flux-Residual          L2-NORM 
          0                 1           2             7    6     1      -0.2824624481E+00       7    6    1        -0.1541830175E+02      0.1554473667E+02
          0                 2           2             7    6     1       0.3159328759E+00       7    6    1         0.1739249176E+02      0.1739808689E+02
          0                 3           2             7    6     1      -0.1684935658E-01       7    6    1        -0.9385436877E+00      0.9580169632E+00
          0                 4           2             7    6     1      -0.2968984017E-02       7    6    1        -0.1652211170E+00      0.1799748954E+00
          0                 5           2             7    6     1      -0.5238602486E-03       7    6    1        -0.2912668519E-01      0.4282305231E-01
          0                 6           1             8    2     1       0.1075132654E-03       7    6    1        -0.5141418921E-02      0.1495474609E-01
          0                 7           1             8    2     1       0.4834077515E-04       8    2    1         0.1255025023E-02      0.6355239001E-02
          0                 8           1             8    2     1       0.2173519253E-04       8    2    1         0.5642916692E-03      0.2822263693E-02
          0                 9           1             8    2     1       0.9772635317E-05       8    2    1         0.2537191333E-03      0.1262622308E-02

    ------------------------------------------------
       NWT REQUIRED            9 OUTER ITERATIONS 
       AND A TOTAL OF         14 INNER ITERATIONS.
    ------------------------------------------------

 NO OUTPUT CONTROL FOR STRESS PERIOD   10   TIME STEP   17
 
 SOLVING FOR HEAD 
                                                   Max.-Head-Change                         Max.-Flux-Residual
  Residual-Control   Outer-Iter.   Inner-Iter.     Column Row Layer    Maximum-Head-Change  Column Row Layer    Maximum-Flux-Residual          L2-NORM 
          0                 1           2             7    6     1      -0.2828810004E+00       7    6    1        -0.1544146677E+02      0.1556524886E+02
          0                 2           2             7    6     1       0.3159755031E+00       7    6    1         0.1739480328E+02      0.1740036598E+02
          0                 3           2             7    6     1      -0.1694957540E-01       7    6    1        -0.9441208408E+00      0.9634977918E+00
          0                 4           2             7    6     1      -0.2986668702E-02       7    6    1        -0.1662043730E+00      0.1808607374E+00
          0                 5           2             7    6     1      -0.5269849128E-03       7    6    1        -0.2930026661E-01      0.4292537969E-01
          0                 6           1             8    2     1       0.1075088153E-03       7    6    1        -0.5172101105E-02      0.1495617085E-01
          0                 7           1             8    2     1       0.4833859618E-04       8    2    1         0.1254972238E-02      0.6351693065E-02
          0                 8           1             8    2     1       0.2173413306E-04       8    2    1         0.5642658596E-03      0.2820357172E-02
          0                 9           1             8    2     1       0.9772123589E-05       8    2    1         0.2537066006E-03      0.1261750895E-02

    ------------------------------------------------
       NWT REQUIRED            9 OUTER ITERATIONS 
       AND A TOTAL OF         14 INNER ITERATIONS.
    ------------------------------------------------

 NO OUTPUT CONTROL FOR STRESS PERIOD   10   TIME STEP   18
 
 SOLVING FOR HEAD 
                                                   Max.-Head-Change                         Max.-Flux-Residual
  Residual-Control   Outer-Iter.   Inner-Iter.     Column Row Layer    Maximum-Head-Change  Column Row Layer    Maximum-Flux-Residual          L2-NORM 
          0                 1           2             7    6     1      -0.2832669569E+00       7    6    1        -0.1546281990E+02      0.1558425934E+02
          0                 2           2             7    6     1       0.3160147522E+00       7    6    1         0.1739693421E+02      0.1740246811E+02
          0                 3           2             7    6     1      -0.1704188232E-01       7    6    1        -0.9492346083E+00      0.9684228487E+00
          0                 4           2             7    6     1      -0.3003038628E-02       7    6    1        -0.1671060677E+00      0.1816511631E+00
          0                 5           2             7    6     1      -0.5299142778E-03       7    6    1        -0.2946118590E-01      0.4301819747E-01
          0                 6           1             8    2     1       0.1075037496E-03       7    6    1        -0.5201023487E-02      0.1495720707E-01
          0                 7           1             8    2     1       0.4833614197E-04       8    2    1         0.1254912266E-02      0.6348198210E-02
          0                 8           1             8    2     1       0.2173295066E-04       8    2    1         0.5642368342E-03      0.2818487842E-02
          0                 9           1             8    2     1       0.9771556212E-05       8    2    1         0.2536926251E-03      0.1260891432E-02

    ------------------------------------------------
       NWT REQUIRED            9 OUTER ITERATIONS 
       AND A TOTAL OF         14 INNER ITERATIONS.
    ------------------------------------------------

 NO OUTPUT CONTROL FOR STRESS PERIOD   10   TIME STEP   19
 
 SOLVING FOR HEAD 
                                                   Max.-Head-Change                         Max.-Flux-Residual
  Residual-Control   Outer-Iter.   Inner-Iter.     Column Row Layer    Maximum-Head-Change  Column Row Layer    Maximum-Flux-Residual          L2-NORM 
          0                 1           2             7    6     1      -0.2836230083E+00       7    6    1        -0.1548251133E+02      0.1560188000E+02
          0                 2           2             7    6     1       0.3160509048E+00       7    6    1         0.1739889947E+02      0.1740440774E+02
          0                 3           2             7    6     1      -0.1712717363E-01       7    6    1        -0.9539807021E+00      0.9730853532E+00
          0                 4           2             7    6     1      -0.3018090746E-02       7    6    1        -0.1679428913E+00      0.1824043337E+00
          0                 5           2             7    6     1      -0.5325740938E-03       7    6    1        -0.2960893433E-01      0.4310413488E-01
          0                 6           1             8    2     1       0.1074980691E-03       7    6    1        -0.5227142575E-02      0.1495742838E-01
          0                 7           1             8    2     1       0.4833341226E-04       8    2    1         0.1254845124E-02      0.6344667585E-02
          0                 8           1             8    2     1       0.2173164483E-04       8    2    1         0.5642045985E-03      0.2816635199E-02
          0                 9           1             8    2     1       0.9770934061E-05       8    2    1         0.2536772153E-03      0.1260042224E-02

    ------------------------------------------------
       NWT REQUIRED            9 OUTER ITERATIONS 
       AND A TOTAL OF         14 INNER ITERATIONS.
    ------------------------------------------------

 NO OUTPUT CONTROL FOR STRESS PERIOD   10   TIME STEP   20
 
 SOLVING FOR HEAD 
                                                   Max.-Head-Change                         Max.-Flux-Residual
  Residual-Control   Outer-Iter.   Inner-Iter.     Column Row Layer    Maximum-Head-Change  Column Row Layer    Maximum-Flux-Residual          L2-NORM 
          0                 1           2             7    6     1      -0.2839518278E+00       7    6    1        -0.1550069015E+02      0.1561821718E+02
          0                 2           2             7    6     1       0.3160842397E+00       7    6    1         0.1740071391E+02      0.1740619926E+02
          0                 3           2             7    6     1      -0.1720595942E-01       7    6    1        -0.9583646876E+00      0.9773913123E+00
          0                 4           2             7    6     1      -0.3031995266E-02       7    6    1        -0.1687158989E+00      0.1830995378E+00
          0                 5           2             7    6     1      -0.5350311917E-03       7    6    1        -0.2974541996E-01      0.4318284517E-01
          0                 6           1             8    2     1       0.1074917899E-03       7    6    1        -0.5251271238E-02      0.1495710667E-01
          0                 7           1             8    2     1       0.4833041542E-04       8    2    1         0.1254770998E-02      0.6341137566E-02
          0                 8           1             8    2     1       0.2173021957E-04       8    2    1         0.5641692433E-03      0.2814800176E-02
          0                 9           1             8    2     1       0.9770258386E-05       8    2    1         0.2536604118E-03      0.1259201841E-02

    ------------------------------------------------
       NWT REQUIRED            9 OUTER ITERATIONS 
       AND A TOTAL OF         14 INNER ITERATIONS.
    ------------------------------------------------

 NO OUTPUT CONTROL FOR STRESS PERIOD   10   TIME STEP   21
 
 SOLVING FOR HEAD 
                                                   Max.-Head-Change                         Max.-Flux-Residual
  Residual-Control   Outer-Iter.   Inner-Iter.     Column Row Layer    Maximum-Head-Change  Column Row Layer    Maximum-Flux-Residual          L2-NORM 
          0                 1           2             7    6     1      -0.2842553898E+00       7    6    1        -0.1551746674E+02      0.1563335935E+02
          0                 2           2             7    6     1       0.3161149646E+00       7    6    1         0.1740238851E+02      0.1740785334E+02
          0                 3           2             7    6     1      -0.1729838532E-01       7    6    1        -0.9618444453E+00      0.9807759945E+00
          0                 4           2             7    6     1      -0.3028569529E-02       7    6    1        -0.1685132315E+00      0.1828672186E+00
          0                 5           2             7    6     1      -0.5344829607E-03       7    6    1        -0.2971301988E-01      0.4314427917E-01
          0                 6           1             8    2     1       0.1074849085E-03       7    6    1        -0.5246067648E-02      0.1494661796E-01
          0                 7           1             8    2     1       0.4832714872E-04       8    2    1         0.1254689849E-02      0.6336900814E-02
          0                 8           1             8    2     1       0.2172867376E-04       8    2    1         0.5641307463E-03      0.2812926362E-02
          0                 9           1             8    2     1       0.9769528687E-05       8    2    1         0.2536422011E-03      0.1258363196E-02

    ------------------------------------------------
       NWT REQUIRED            9 OUTER ITERATIONS 
       AND A TOTAL OF         14 INNER ITERATIONS.
    ------------------------------------------------

 NO OUTPUT CONTROL FOR STRESS PERIOD   10   TIME STEP   22
 
 SOLVING FOR HEAD 
                                                   Max.-Head-Change                         Max.-Flux-Residual
  Residual-Control   Outer-Iter.   Inner-Iter.     Column Row Layer    Maximum-Head-Change  Column Row Layer    Maximum-Flux-Residual          L2-NORM 
          0                 1           2             7    6     1      -0.2845360627E+00       7    6    1        -0.1553297272E+02      0.1564739470E+02
          0                 2           2             7    6     1       0.3161433242E+00       7    6    1         0.1740393639E+02      0.1740938238E+02
          0                 3           2             7    6     1      -0.1735636159E-01       7    6    1        -0.9650597641E+00      0.9839024614E+00
          0                 4           2             7    6     1      -0.3048136416E-02       7    6    1        -0.1696067798E+00      0.1838717453E+00
          0                 5           2             7    6     1      -0.5379137880E-03       7    6    1        -0.2990451040E-01      0.4326199982E-01
          0                 6           1             8    2     1       0.1074774218E-03       7    6    1        -0.5279675290E-02      0.1494978147E-01
          0                 7           1             8    2     1       0.4832361090E-04       8    2    1         0.1254601646E-02      0.6333670875E-02
          0                 8           1             8    2     1       0.2172700590E-04       8    2    1         0.5640890828E-03      0.2811132886E-02
          0                 9           1             8    2     1       0.9768744714E-05       8    2    1         0.2536225750E-03      0.1257535001E-02

    ------------------------------------------------
       NWT REQUIRED            9 OUTER ITERATIONS 
       AND A TOTAL OF         14 INNER ITERATIONS.
    ------------------------------------------------

 NO OUTPUT CONTROL FOR STRESS PERIOD   10   TIME STEP   23
 
 SOLVING FOR HEAD 
                                                   Max.-Head-Change                         Max.-Flux-Residual
  Residual-Control   Outer-Iter.   Inner-Iter.     Column Row Layer    Maximum-Head-Change  Column Row Layer    Maximum-Flux-Residual          L2-NORM 
          0                 1           2             7    6     1      -0.2847955492E+00       7    6    1        -0.1554730316E+02      0.1566041385E+02
          0                 2           2             7    6     1       0.3161694971E+00       7    6    1         0.1740536701E+02      0.1741079635E+02
          0                 3           2             7    6     1      -0.1740996477E-01       7    6    1        -0.9680324845E+00      0.9867923125E+00
          0                 4           2             7    6     1      -0.3066238741E-02       7    6    1        -0.1706184714E+00      0.1848018405E+00
          0                 5           2             7    6     1      -0.5410878481E-03       7    6    1        -0.3008166890E-01      0.4337054118E-01
          0                 6           1             8    2     1       0.1074693407E-03       7    6    1        -0.5310766202E-02      0.1495223464E-01
          0                 7           1             8    2     1       0.4831980659E-04       8    2    1         0.1254506505E-02      0.6330419374E-02
          0                 8           1             8    2     1       0.2172521898E-04       8    2    1         0.5640443136E-03      0.2809355396E-02
          0                 9           1             8    2     1       0.9767907217E-05       8    2    1         0.2536015548E-03      0.1256715376E-02

    ------------------------------------------------
       NWT REQUIRED            9 OUTER ITERATIONS 
       AND A TOTAL OF         14 INNER ITERATIONS.
    ------------------------------------------------

 NO OUTPUT CONTROL FOR STRESS PERIOD   10   TIME STEP   24
 
 SOLVING FOR HEAD 
                                                   Max.-Head-Change                         Max.-Flux-Residual
  Residual-Control   Outer-Iter.   Inner-Iter.     Column Row Layer    Maximum-Head-Change  Column Row Layer    Maximum-Flux-Residual          L2-NORM 
          0                 1           2             7    6     1      -0.1444081983E+00       7    6    1        -0.7889324783E+01      0.8107865233E+01
          0                 2           2             7    6     1       0.1629300649E+00       7    6    1         0.8968451957E+01      0.8979011792E+01
          0                 3           2             7    6     1      -0.7058842108E-02       7    6    1        -0.3929190596E+00      0.4290367887E+00
          0                 4           2             7    6     1      -0.1242557259E-02       7    6    1        -0.6921785360E-01      0.9876184717E-01
          0                 5           2             8    2     1       0.2390060405E-03       7    6    1        -0.1218256732E-01      0.3350940720E-01
          0                 6           1             8    2     1       0.1074606758E-03       8    2    1         0.2789955155E-02      0.1413049489E-01
          0                 7           1             8    2     1       0.4831574103E-04       8    2    1         0.1254404554E-02      0.6266909250E-02
          0                 8           1             8    2     1       0.2172331563E-04       8    2    1         0.5639965014E-03      0.2803036911E-02
          0                 9           1             8    2     1       0.9767017072E-05       8    2    1         0.2535791705E-03      0.1255449568E-02

    ------------------------------------------------
       NWT REQUIRED            9 OUTER ITERATIONS 
       AND A TOTAL OF         14 INNER ITERATIONS.
    ------------------------------------------------

 NO OUTPUT CONTROL FOR STRESS PERIOD   10   TIME STEP   25
 
 SOLVING FOR HEAD 
                                                   Max.-Head-Change                         Max.-Flux-Residual
  Residual-Control   Outer-Iter.   Inner-Iter.     Column Row Layer    Maximum-Head-Change  Column Row Layer    Maximum-Flux-Residual          L2-NORM 
          0                 1           2             3   13     1       0.1081854138E-01       3   13    1         0.5743158759E+00      0.1910030092E+01
          0                 2           2             8    2     1       0.2629334971E-02       7    6    1         0.7233659992E-01      0.4481193228E+00
          0                 3           2             8    2     1       0.1182197021E-02       8    2    1         0.3069268162E-01      0.1625348954E+00
          0                 4           2             8    2     1       0.5315354268E-03       8    2    1         0.1379998136E-01      0.7003612118E-01
          0                 5           2             8    2     1       0.2389862837E-03       8    2    1         0.6204696883E-02      0.3118252271E-01
          0                 6           1             8    2     1       0.1074514149E-03       8    2    1         0.2789722744E-02      0.1395501832E-01
          0                 7           1             8    2     1       0.4831140811E-04       8    2    1         0.1254295646E-02      0.6250362897E-02
          0                 8           1             8    2     1       0.2172129136E-04       8    2    1         0.5639455561E-03      0.2799962441E-02
          0                 9           1             8    2     1       0.9766073278E-05       8    2    1         0.2535553818E-03      0.1254377213E-02

    ------------------------------------------------
       NWT REQUIRED            9 OUTER ITERATIONS 
       AND A TOTAL OF         14 INNER ITERATIONS.
    ------------------------------------------------

 NO OUTPUT CONTROL FOR STRESS PERIOD   10   TIME STEP   26
 
 SOLVING FOR HEAD 
                                                   Max.-Head-Change                         Max.-Flux-Residual
  Residual-Control   Outer-Iter.   Inner-Iter.     Column Row Layer    Maximum-Head-Change  Column Row Layer    Maximum-Flux-Residual          L2-NORM 
          0                 1           2             3   13     1       0.1060575659E-01       3   13    1         0.5630043151E+00      0.1900341666E+01
          0                 2           2             8    2     1       0.2629131342E-02       7    6    1         0.7046205889E-01      0.4475066181E+00
          0                 3           2             8    2     1       0.1182101320E-02       8    2    1         0.3069028496E-01      0.1624280296E+00
          0                 4           2             8    2     1       0.5314905425E-03       8    2    1         0.1379885542E-01      0.6999171319E-01
          0                 5           2             8    2     1       0.2389652730E-03       8    2    1         0.6204169006E-02      0.3116259890E-01
          0                 6           1             8    2     1       0.1074415966E-03       8    2    1         0.2789475718E-02      0.1394607458E-01
          0                 7           1             8    2     1       0.4830682733E-04       8    2    1         0.1254180246E-02      0.6246349415E-02
          0                 8           1             8    2     1       0.2171915766E-04       8    2    1         0.5638917346E-03      0.2798161662E-02
          0                 9           1             8    2     1       0.9765080462E-05       8    2    1         0.2535303137E-03      0.1253569143E-02

    ------------------------------------------------
       NWT REQUIRED            9 OUTER ITERATIONS 
       AND A TOTAL OF         14 INNER ITERATIONS.
    ------------------------------------------------

 NO OUTPUT CONTROL FOR STRESS PERIOD   10   TIME STEP   27
 
 SOLVING FOR HEAD 
                                                   Max.-Head-Change                         Max.-Flux-Residual
  Residual-Control   Outer-Iter.   Inner-Iter.     Column Row Layer    Maximum-Head-Change  Column Row Layer    Maximum-Flux-Residual          L2-NORM 
          0                 1           2             3   13     1       0.1039850237E-01       3   13    1         0.5519806167E+00      0.1891590689E+01
          0                 2           2             8    2     1       0.2628913414E-02       7    6    1         0.6883602619E-01      0.4469566984E+00
          0                 3           2             8    2     1       0.1181999192E-02       8    2    1         0.3068772140E-01      0.1623243251E+00
          0                 4           2             8    2     1       0.5314427693E-03       8    2    1         0.1379765447E-01      0.6994772368E-01
          0                 5           2             8    2     1       0.2389429637E-03       8    2    1         0.6203607409E-02      0.3114284717E-01
          0                 6           1             8    2     1       0.1074311949E-03       8    2    1         0.2789213538E-02      0.1393720439E-01
          0                 7           1             8    2     1       0.4830198443E-04       8    2    1         0.1254058035E-02      0.6242368449E-02
          0                 8           1             8    2     1       0.2171690591E-04       8    2    1         0.5638348491E-03      0.2796375239E-02
          0                 9           1             8    2     1       0.9764034748E-05       8    2    1         0.2535038693E-03      0.1252767611E-02

    ------------------------------------------------
       NWT REQUIRED            9 OUTER ITERATIONS 
       AND A TOTAL OF         14 INNER ITERATIONS.
    ------------------------------------------------

 NO OUTPUT CONTROL FOR STRESS PERIOD   10   TIME STEP   28
 
 SOLVING FOR HEAD 
                                                   Max.-Head-Change                         Max.-Flux-Residual
  Residual-Control   Outer-Iter.   Inner-Iter.     Column Row Layer    Maximum-Head-Change  Column Row Layer    Maximum-Flux-Residual          L2-NORM 
          0                 1           2             3   13     1       0.1019621188E-01       3   13    1         0.5412151572E+00      0.1883613913E+01
          0                 2           2             8    2     1       0.2628681325E-02       8    2    1         0.6824727839E-01      0.4464419087E+00
          0                 3           2             8    2     1       0.1181890725E-02       8    2    1         0.3068499266E-01      0.1622221514E+00
          0                 4           2             8    2     1       0.5313921600E-03       8    2    1         0.1379637958E-01      0.6990400481E-01
          0                 5           2             8    2     1       0.2389193854E-03       8    2    1         0.6203012729E-02      0.3112318588E-01
          0                 6           1             8    2     1       0.1074202250E-03       8    2    1         0.2788936554E-02      0.1392837368E-01
          0                 7           1             8    2     1       0.4829688766E-04       8    2    1         0.1253929204E-02      0.6238404685E-02
          0                 8           1             8    2     1       0.2171454024E-04       8    2    1         0.5637750003E-03      0.2794596379E-02
          0                 9           1             8    2     1       0.9762938386E-05       8    2    1         0.2534761045E-03      0.1251969327E-02

    ------------------------------------------------
       NWT REQUIRED            9 OUTER ITERATIONS 
       AND A TOTAL OF         14 INNER ITERATIONS.
    ------------------------------------------------

 NO OUTPUT CONTROL FOR STRESS PERIOD   10   TIME STEP   29
 
 SOLVING FOR HEAD 
                                                   Max.-Head-Change                         Max.-Flux-Residual
  Residual-Control   Outer-Iter.   Inner-Iter.     Column Row Layer    Maximum-Head-Change  Column Row Layer    Maximum-Flux-Residual          L2-NORM 
          0                 1           2             3   13     1       0.9998972706E-02       3   13    1         0.5307278924E+00      0.1876240983E+01
          0                 2           2             8    2     1       0.2628435131E-02       8    2    1         0.6824108117E-01      0.4459547775E+00
          0                 3           2             8    2     1       0.1181775929E-02       8    2    1         0.3068209933E-01      0.1621216961E+00
          0                 4           2             8    2     1       0.5313387102E-03       8    2    1         0.1379503085E-01      0.6986039812E-01
          0                 5           2             8    2     1       0.2388945326E-03       8    2    1         0.6202384912E-02      0.3110354206E-01
          0                 6           1             8    2     1       0.1074086835E-03       8    2    1         0.2788644702E-02      0.1391954821E-01
          0                 7           1             8    2     1       0.4829153416E-04       8    2    1         0.1253793700E-02      0.6234442936E-02
          0                 8           1             8    2     1       0.2171205976E-04       8    2    1         0.5637121595E-03      0.2792818339E-02
          0                 9           1             8    2     1       0.9761790127E-05       8    2    1         0.2534469935E-03      0.1251171375E-02

    ------------------------------------------------
       NWT REQUIRED            9 OUTER ITERATIONS 
       AND A TOTAL OF         14 INNER ITERATIONS.
    ------------------------------------------------

 NO OUTPUT CONTROL FOR STRESS PERIOD   10   TIME STEP   30



 STREAM LISTING     PERIOD     10   STEP       30

 LAYER ROW COL. STREAM  RCH.  FLOW INTO     FLOW TO   FLOW OUT OF   OVRLND.     DIRECT     STREAM       STREAM     STREAM     STREAM   STREAMBED  STREAMBED
                SEG.NO.  NO.  STRM. RCH.    AQUIFER    STRM. RCH.    RUNOFF     PRECIP       ET          HEAD       DEPTH      WIDTH   CONDCTNC.   GRADIENT

   1    1    1     1     1    7.0000E+00  1.1914E-09   7.0000E+00  0.000E+00  0.000E+00  0.000E+00  1.09385E+03  7.984E-01  6.970E+00  3.137E-10  1.266E+00
   1    2    2     1     2    7.0000E+00  1.8485E-09   7.0000E+00  0.000E+00  0.000E+00  0.000E+00  1.08886E+03  7.975E-01  6.954E+00  4.868E-10  1.266E+00
   1    3    3     1     3    7.0000E+00  1.5861E-09   7.0000E+00  0.000E+00  0.000E+00  0.000E+00  1.08322E+03  7.978E-01  6.960E+00  4.176E-10  1.266E+00
   1    3    4     1     4    7.0000E+00  1.4678E-09   7.0000E+00  0.000E+00  0.000E+00  0.000E+00  1.07821E+03  7.980E-01  6.963E+00  3.865E-10  1.266E+00
   1    4    5     2     1    5.0000E+00  2.6928E-01   4.7307E+00  0.000E+00  0.000E+00  0.000E+00  1.07239E+03  4.523E-01  1.200E+01  7.800E-02  1.151E+00
   1    5    6     2     2    4.7307E+00  2.0633E-01   4.5244E+00  0.000E+00  0.000E+00  0.000E+00  1.06695E+03  4.389E-01  1.200E+01  6.000E-02  1.146E+00
   1    6    6     2     3    4.5244E+00  2.0562E-01   4.3188E+00  0.000E+00  0.000E+00  0.000E+00  1.06222E+03  4.271E-01  1.200E+01  6.000E-02  1.142E+00
   1    7    6     2     4    4.3188E+00  2.0490E-01   4.1139E+00  0.000E+00  0.000E+00  0.000E+00  1.05749E+03  4.151E-01  1.200E+01  6.000E-02  1.138E+00
   1    8    6     2     5    4.1139E+00  2.0417E-01   3.9097E+00  0.000E+00  0.000E+00  0.000E+00  1.05276E+03  4.029E-01  1.200E+01  6.000E-02  1.134E+00
   1    3    5     3     1    2.0000E+00  2.8252E-01   1.7175E+00  0.000E+00  0.000E+00  0.000E+00  1.07555E+03  1.909E+00  9.636E+00  7.227E-02  1.955E+00
   1    3    6     3     2    1.7175E+00  2.4905E-01   1.4684E+00  0.000E+00  0.000E+00  0.000E+00  1.07264E+03  1.727E+00  8.909E+00  6.682E-02  1.864E+00
   1    3    7     3     3    1.4684E+00  1.9718E-01   1.2712E+00  0.000E+00  0.000E+00  0.000E+00  1.06987E+03  1.555E+00  8.218E+00  5.547E-02  1.777E+00
   1    4    8     3     4    1.2712E+00  2.2567E-01   1.0456E+00  0.000E+00  0.000E+00  0.000E+00  1.06682E+03  1.364E+00  7.455E+00  6.709E-02  1.682E+00
   1    5    8     3     5    1.0456E+00  1.5790E-01   8.8768E-01  0.000E+00  0.000E+00  0.000E+00  1.06362E+03  1.164E+00  6.655E+00  4.991E-02  1.582E+00
   1    6    8     3     6    8.8768E-01  5.5980E-02   8.3170E-01  0.000E+00  0.000E+00  0.000E+00  1.06158E+03  1.036E+00  6.145E+00  1.844E-02  1.518E+00
   1    5   10     4     1    1.0000E+01  9.0919E-02   9.9091E+00  0.000E+00  0.000E+00  0.000E+00  1.07836E+03  6.368E-01  1.000E+01  2.500E-02  1.212E+00
   1    5    9     4     2    9.9091E+00  1.8158E-01   9.7275E+00  0.000E+00  0.000E+00  0.000E+00  1.07154E+03  6.315E-01  1.000E+01  5.000E-02  1.211E+00
   1    6    8     4     3    9.7275E+00  1.2689E-01   9.6006E+00  0.000E+00  0.000E+00  0.000E+00  1.06381E+03  6.256E-01  1.000E+01  3.500E-02  1.209E+00
   1    6    8     5     1    1.0432E+01  2.2686E-09   1.0432E+01  0.000E+00  0.000E+00  0.000E+00  1.05868E+03  6.790E-01  1.542E+01  6.166E-10  1.226E+00
   1    7    7     5     2    1.0432E+01  2.8306E-09   1.0432E+01  0.000E+00  0.000E+00  0.000E+00  1.05418E+03  6.784E-01  1.539E+01  7.695E-10  1.226E+00
   1    8    7     5     3    1.0432E+01  1.9868E-09   1.0432E+01  0.000E+00  0.000E+00  0.000E+00  1.04993E+03  6.794E-01  1.543E+01  5.400E-10  1.226E+00
   1    8    6     5     4    1.0432E+01  1.4217E-09   1.0432E+01  0.000E+00  0.000E+00  0.000E+00  1.04693E+03  6.800E-01  1.545E+01  3.863E-10  1.227E+00
   1    9    6     6     1    1.4342E+01  2.3224E-01   1.4110E+01  0.000E+00  0.000E+00  0.000E+00  1.04360E+03  8.706E-01  1.200E+01  6.000E-02  1.290E+00
   1   10    7     6     2    1.4110E+01  2.3172E-01   1.3878E+01  0.000E+00  0.000E+00  0.000E+00  1.03904E+03  8.621E-01  1.200E+01  6.000E-02  1.287E+00
   1   11    7     6     3    1.3878E+01  2.3121E-01   1.3647E+01  0.000E+00  0.000E+00  0.000E+00  1.03449E+03  8.535E-01  1.200E+01  6.000E-02  1.284E+00
   1   12    7     6     4    1.3647E+01  2.3069E-01   1.3416E+01  0.000E+00  0.000E+00  0.000E+00  1.02994E+03  8.448E-01  1.200E+01  6.000E-02  1.282E+00
   1   13    7     6     5    1.3416E+01  9.2131E-02   1.3324E+01  0.000E+00  0.000E+00  0.000E+00  1.02675E+03  8.388E-01  1.200E+01  2.400E-02  1.280E+00
   1   14    9     7     1    1.5000E+02  2.9539E-08   1.5000E+02  0.000E+00  0.000E+00  0.000E+00  1.03986E+03  2.283E+00  5.528E+01  5.591E-09  1.761E+00
   1   13    8     7     2    1.5000E+02  3.2486E-14   1.5000E+02  0.000E+00  0.000E+00  0.000E+00  1.03478E+03  2.283E+00  5.527E+01  6.150E-15  1.761E+00
   1   13    7     7     3    1.5000E+02  2.9539E-08   1.5000E+02  0.000E+00  0.000E+00  0.000E+00  1.02970E+03  2.283E+00  5.528E+01  5.591E-09  1.761E+00
   1   13    6     8     1    1.6332E+02  2.5278E-09   1.6332E+02  0.000E+00  0.000E+00  0.000E+00  1.02477E+03  2.900E+00  4.205E+01  4.285E-10  1.967E+00
   1   13    5     8     2    1.6332E+02  2.5388E-32   1.6332E+02  0.000E+00  0.000E+00  0.000E+00  1.01853E+03  2.908E+00  4.217E+01  4.297E-33  1.969E+00
   1   13    4     8     3    1.6332E+02  2.0615E-10   1.6332E+02  0.000E+00  0.000E+00  0.000E+00  1.01228E+03  2.901E+00  4.207E+01  4.287E-11  1.603E+00
   1   13    3     8     4    1.6332E+02  6.3042E-08   1.6332E+02  0.000E+00  0.000E+00  0.000E+00  1.00603E+03  2.906E+00  4.214E+01  4.294E-08  4.894E-01
   1   13    2     8     5    1.6332E+02 -6.9129E-01   1.6402E+02  0.000E+00  0.000E+00  0.000E+00  9.99785E+02  2.910E+00  4.220E+01  4.301E+00 -5.358E-02
   1   13    1     8     6    1.6402E+02 -1.2463E+00   1.6526E+02  0.000E+00  0.000E+00  0.000E+00  9.94792E+02  2.917E+00  4.230E+01  2.586E+00 -1.606E-01
   1    6    8     9     1    0.0000E+00  0.0000E+00   0.0000E+00  0.000E+00  0.000E+00  0.000E+00  1.07850E+03  0.000E+00  4.000E+00  0.000E+00  1.000E+00





UNSATURATED ZONE PACKAGE VOLUMETRIC BUDGET FOR  TIME STEP    30 STRESS PERIOD   10
  ------------------------------------------------------------------------------



     CUMULATIVE VOLUMES      L**3       RATES FOR THIS TIME STEP      L**3/T
     ------------------                 ------------------------

           IN:                                      IN:
           ---                                      ---
        INFILTRATION =    52318863.1201          INFILTRATION =           0.8475

          OUT:                                     OUT:
          ----                                     ----
              UZF ET =   563663504.7137                UZF ET =           1.0745
        UZF RECHARGE =   654667493.9927          UZF RECHARGE =          26.0306

            IN - OUT = -1166012135.5862              IN - OUT =         -26.2576

          STORAGE:                                 STORAGE:
          --------                                 --------
      STORAGE CHANGE = -1166004347.9550        STORAGE CHANGE =         -26.2576

 PERCENT DISCREPANCY IS DIFFERENCE BETWEEN IN-OUT MINUS CHANGE IN STORAGE
 DIVIDED BY THE AVERAGE OF IN AND OUT TIMES 100

 PERCENT DISCREPANCY =          -0.00     PERCENT DISCREPANCY =           0.00






1
  VOLUMETRIC BUDGET FOR ENTIRE MODEL AT END OF TIME STEP   30, STRESS PERIOD  10
  ------------------------------------------------------------------------------

     CUMULATIVE VOLUMES      L**3       RATES FOR THIS TIME STEP      L**3/T
     ------------------                 ------------------------

           IN:                                      IN:
           ---                                      ---
             STORAGE =    16149497.0000               STORAGE =           0.0000
       CONSTANT HEAD =           0.0000         CONSTANT HEAD =           0.0000
               WELLS =           0.0000                 WELLS =           0.0000
     HEAD DEP BOUNDS =    27632278.0000       HEAD DEP BOUNDS =           1.0282
      STREAM LEAKAGE =   104462952.0000        STREAM LEAKAGE =           3.6760
        UZF RECHARGE =   654667648.0000          UZF RECHARGE =          26.0306
               GW ET =           0.0000                 GW ET =           0.0000
     SURFACE LEAKAGE =           0.0000       SURFACE LEAKAGE =           0.0000

            TOTAL IN =   802912384.0000              TOTAL IN =          30.7348

          OUT:                                     OUT:
          ----                                     ----
             STORAGE =   701176832.0000               STORAGE =          27.3959
       CONSTANT HEAD =           0.0000         CONSTANT HEAD =           0.0000
               WELLS =     1059111.1250                 WELLS =           0.0000
     HEAD DEP BOUNDS =     7458919.0000       HEAD DEP BOUNDS =           0.2764
      STREAM LEAKAGE =    55947016.0000        STREAM LEAKAGE =           1.9376
        UZF RECHARGE =           0.0000          UZF RECHARGE =           0.0000
               GW ET =    37213632.0000                 GW ET =           1.1208
     SURFACE LEAKAGE =           0.0000       SURFACE LEAKAGE =           0.0000

           TOTAL OUT =   802855552.0000             TOTAL OUT =          30.7307

            IN - OUT =       56832.0000              IN - OUT =       4.1161E-03

 PERCENT DISCREPANCY =           0.01     PERCENT DISCREPANCY =           0.01






         TIME SUMMARY AT END OF TIME STEP   30 IN STRESS PERIOD   10
                    SECONDS     MINUTES      HOURS       DAYS        YEARS
                    -----------------------------------------------------------
   TIME STEP LENGTH  87600.      1460.0      24.333      1.0139     2.77588E-03
 STRESS PERIOD TIME 2.62800E+06  43800.      730.00      30.417     8.32763E-02
         TOTAL TIME 2.62800E+07 4.38000E+05  7300.0      304.17     0.83276    
1
1
                            STRESS PERIOD NO.   11, LENGTH =   2628000.    
                            -----------------------------------------------

                              NUMBER OF TIME STEPS =    30

                               MULTIPLIER FOR DELT =     1.000

                            INITIAL TIME STEP SIZE =   87600.00    

 WELL NO.  LAYER   ROW   COL   STRESS RATE         
 --------------------------------------------------
      1      1      6      4       0.000    
      2      1      6      7       0.000    
      3      1      7      4       0.000    
      4      1      7      5       0.000    
      5      1      8      4       0.000    
      6      1      8      5       0.000    
      7      1      9      4       0.000    
      8      1      9      5       0.000    
      9      1     10      4       0.000    
     10      1     10      5       0.000    

     10 WELLS

 REUSING NON-PARAMETER GHB CELLS FROM LAST STRESS PERIOD

      2 GHB CELLS

 REUSING STREAM SEGMENT DATA FROM LAST STRESS PERIOD



            AREAL INFILTRATION RATE
 READING ON UNIT   19 WITH FORMAT: (10F4.0)            

            1           2           3           4           5           6           7           8           9          10
 ........................................................................................................................
   1   1.0000E-10  2.0000E-10   0.000       0.000       0.000       0.000       0.000       0.000       0.000       0.000    
   2   2.0000E-10  1.0000E-10  2.0000E-10   0.000       0.000      8.0000E-10  8.0000E-10  5.0000E-10   0.000       0.000    
   3    0.000      5.0000E-10  1.0000E-10  1.0000E-10  8.0000E-10  8.0000E-10  5.0000E-10  5.0000E-10   0.000       0.000    
   4   8.0000E-10  5.0000E-10  1.0000E-10  1.0000E-10  1.0000E-10  1.0000E-10  1.0000E-10  1.0000E-10  2.0000E-10   0.000    
   5   8.0000E-10  5.0000E-10  1.0000E-10  1.0000E-10  1.0000E-10  1.0000E-10  1.0000E-10  1.0000E-10  1.0000E-10  1.0000E-10
   6   8.0000E-10  5.0000E-10  5.0000E-10  2.0000E-10  2.0000E-10  1.0000E-10  1.0000E-10  1.0000E-10  1.0000E-10  5.0000E-10
   7   8.0000E-10  5.0000E-10  5.0000E-10  2.0000E-10  2.0000E-10  1.0000E-10  1.0000E-10  2.0000E-10  2.0000E-10   0.000    
   8    0.000      5.0000E-10  5.0000E-10  2.0000E-10  2.0000E-10  1.0000E-10  1.0000E-10  2.0000E-10  5.0000E-10   0.000    
   9    0.000      5.0000E-10  5.0000E-10  2.0000E-10  2.0000E-10  1.0000E-10  1.0000E-10  2.0000E-10  5.0000E-10   0.000    
  10    0.000      5.0000E-10  5.0000E-10  2.0000E-10  2.0000E-10  1.0000E-10  1.0000E-10  2.0000E-10  5.0000E-10  8.0000E-10
  11    0.000      1.0000E-10  1.0000E-10  1.0000E-10  1.0000E-10  1.0000E-10  1.0000E-10  2.0000E-10  5.0000E-10   0.000    
  12   1.0000E-10  1.0000E-10  1.0000E-10  1.0000E-10  1.0000E-10  1.0000E-10  1.0000E-10  1.0000E-10  2.0000E-10   0.000    
  13   1.0000E-10  1.0000E-10  2.0000E-10  2.0000E-10  2.0000E-10  2.0000E-10  2.0000E-10  1.0000E-10  1.0000E-10   0.000    
  14    0.000      2.0000E-10  5.0000E-10  5.0000E-10  5.0000E-10  5.0000E-10  5.0000E-10  2.0000E-10  1.0000E-10   0.000    
  15    0.000       0.000      8.0000E-10  8.0000E-10  8.0000E-10  8.0000E-10   0.000       0.000       0.000       0.000    

                  ET RATE =  1.000000E-09

 USING ET EXTINCTION DEPTH FROM PREVIOUS STRESS PERIOD. CURRENT PERIOD IS:      11

 USING EXTINCTION WATER CONTENT FROM PREVIOUS STRESS PERIOD. CURRENT PERIOD IS:      11
 
 SOLVING FOR HEAD 
                                                   Max.-Head-Change                         Max.-Flux-Residual
  Residual-Control   Outer-Iter.   Inner-Iter.     Column Row Layer    Maximum-Head-Change  Column Row Layer    Maximum-Flux-Residual          L2-NORM 
          0                 1           2             3   13     1       0.1634282816E-01       3   13    1         0.8685576531E+00      0.2100921993E+01
          0                 2           2             8    2     1       0.2628175107E-02       3   13    1        -0.8685618925E-01      0.4548776277E+00
          0                 3           2             8    2     1       0.1181654979E-02       8    2    1         0.3067904487E-01      0.1621660045E+00
          0                 4           2             8    2     1       0.5312825227E-03       8    2    1         0.1379361041E-01      0.6981905092E-01
          0                 5           2             8    2     1       0.2388684613E-03       8    2    1         0.6201725189E-02      0.3108607050E-01
          0                 6           1             8    2     1       0.1073966001E-03       8    2    1         0.2788338658E-02      0.1391186757E-01
          0                 7           1             8    2     1       0.4828593918E-04       8    2    1         0.1253651881E-02      0.6231006798E-02
          0                 8           1             8    2     1       0.2170947211E-04       8    2    1         0.5636465155E-03      0.2791276636E-02
          0                 9           1             8    2     1       0.9760594471E-05       8    2    1         0.2534166367E-03      0.1250479446E-02

    ------------------------------------------------
       NWT REQUIRED            9 OUTER ITERATIONS 
       AND A TOTAL OF         14 INNER ITERATIONS.
    ------------------------------------------------

 NO OUTPUT CONTROL FOR STRESS PERIOD   11   TIME STEP    1
 
 SOLVING FOR HEAD 
                                                   Max.-Head-Change                         Max.-Flux-Residual
  Residual-Control   Outer-Iter.   Inner-Iter.     Column Row Layer    Maximum-Head-Change  Column Row Layer    Maximum-Flux-Residual          L2-NORM 
          0                 1           2             3   13     1       0.1599275529E-01       3   13    1         0.8500982533E+00      0.2068598910E+01
          0                 2           2             8    2     1       0.2627901257E-02       3   13    1        -0.8501032077E-01      0.4529982403E+00
          0                 3           2             8    2     1       0.1181527817E-02       8    2    1         0.3067582904E-01      0.1620209647E+00
          0                 4           2             8    2     1       0.5312235434E-03       8    2    1         0.1379211746E-01      0.6977862533E-01
          0                 5           2             8    2     1       0.2388411361E-03       8    2    1         0.6201032885E-02      0.3106895361E-01
          0                 6           1             8    2     1       0.1073839529E-03       8    2    1         0.2788017968E-02      0.1390424114E-01
          0                 7           1             8    2     1       0.4828009158E-04       8    2    1         0.1253503484E-02      0.6227586276E-02
          0                 8           1             8    2     1       0.2170677054E-04       8    2    1         0.5635779068E-03      0.2789741182E-02
          0                 9           1             8    2     1       0.9759347292E-05       8    2    1         0.2533849454E-03      0.1249790205E-02

    ------------------------------------------------
       NWT REQUIRED            9 OUTER ITERATIONS 
       AND A TOTAL OF         14 INNER ITERATIONS.
    ------------------------------------------------

 NO OUTPUT CONTROL FOR STRESS PERIOD   11   TIME STEP    2
 
 SOLVING FOR HEAD 
                                                   Max.-Head-Change                         Max.-Flux-Residual
  Residual-Control   Outer-Iter.   Inner-Iter.     Column Row Layer    Maximum-Head-Change  Column Row Layer    Maximum-Flux-Residual          L2-NORM 
          0                 1           2             3   13     1       0.1565188516E-01       3   13    1         0.8319396336E+00      0.2049397462E+01
          0                 2           2             8    2     1       0.2627613755E-02       3   13    1        -0.8319450904E-01      0.4520196632E+00
          0                 3           2             8    2     1       0.1181394553E-02       8    2    1         0.3067245401E-01      0.1619247492E+00
          0                 4           2             8    2     1       0.5311618374E-03       8    2    1         0.1379055337E-01      0.6974126318E-01
          0                 5           2             8    2     1       0.2388125923E-03       8    2    1         0.6200308792E-02      0.3105210818E-01
          0                 6           1             8    2     1       0.1073707616E-03       8    2    1         0.2787683077E-02      0.1389666325E-01
          0                 7           1             8    2     1       0.4827400050E-04       8    2    1         0.1253348739E-02      0.6224182022E-02
          0                 8           1             8    2     1       0.2170396016E-04       8    2    1         0.5635064644E-03      0.2788218141E-02
          0                 9           1             8    2     1       0.9758051842E-05       8    2    1         0.2533519905E-03      0.1249117793E-02

    ------------------------------------------------
       NWT REQUIRED            9 OUTER ITERATIONS 
       AND A TOTAL OF         14 INNER ITERATIONS.
    ------------------------------------------------

 NO OUTPUT CONTROL FOR STRESS PERIOD   11   TIME STEP    3
 
 SOLVING FOR HEAD 
                                                   Max.-Head-Change                         Max.-Flux-Residual
  Residual-Control   Outer-Iter.   Inner-Iter.     Column Row Layer    Maximum-Head-Change  Column Row Layer    Maximum-Flux-Residual          L2-NORM 
          0                 1           2             3   13     1       0.1532026727E-01       3   13    1         0.8142672313E+00      0.2031735200E+01
          0                 2           2             8    2     1       0.2627293369E-02       3   13    1        -0.8142715720E-01      0.4511211635E+00
          0                 3           2             8    2     1       0.1181246571E-02       8    2    1         0.3066869543E-01      0.1618315799E+00
          0                 4           2             8    2     1       0.5310935442E-03       8    2    1         0.1378881761E-01      0.6970435321E-01
          0                 5           2             8    2     1       0.2387811002E-03       8    2    1         0.6199507859E-02      0.3103543122E-01
          0                 6           1             8    2     1       0.1073562504E-03       8    2    1         0.2787313793E-02      0.1388919423E-01
          0                 7           1             8    2     1       0.4826731866E-04       8    2    1         0.1253178602E-02      0.6220812239E-02
          0                 8           1             8    2     1       0.2170088592E-04       8    2    1         0.5634281362E-03      0.2786698465E-02
          0                 9           1             8    2     1       0.9756638089E-05       8    2    1         0.2533159512E-03      0.1248423605E-02

    ------------------------------------------------
       NWT REQUIRED            9 OUTER ITERATIONS 
       AND A TOTAL OF         14 INNER ITERATIONS.
    ------------------------------------------------

 NO OUTPUT CONTROL FOR STRESS PERIOD   11   TIME STEP    4
 
 SOLVING FOR HEAD 
                                                   Max.-Head-Change                         Max.-Flux-Residual
  Residual-Control   Outer-Iter.   Inner-Iter.     Column Row Layer    Maximum-Head-Change  Column Row Layer    Maximum-Flux-Residual          L2-NORM 
          0                 1           2             3   13     1       0.1499756512E-01       3   13    1         0.7970636954E+00      0.2015541055E+01
          0                 2           2             8    2     1       0.2626979018E-02       3   13    1        -0.7970690354E-01      0.4502980714E+00
          0                 3           2             8    2     1       0.1181101278E-02       8    2    1         0.3066500721E-01      0.1617406817E+00
          0                 4           2             8    2     1       0.5310264492E-03       8    2    1         0.1378711319E-01      0.6966760323E-01
          0                 5           2             8    2     1       0.2387501422E-03       8    2    1         0.6198720899E-02      0.3101881570E-01
          0                 6           1             8    2     1       0.1073419775E-03       8    2    1         0.2786950738E-02      0.1388167935E-01
          0                 7           1             8    2     1       0.4826074324E-04       8    2    1         0.1253011240E-02      0.6217448638E-02
          0                 8           1             8    2     1       0.2169785871E-04       8    2    1         0.5633510406E-03      0.2785187503E-02
          0                 9           1             8    2     1       0.9755245221E-05       8    2    1         0.2532804600E-03      0.1247744796E-02

    ------------------------------------------------
       NWT REQUIRED            9 OUTER ITERATIONS 
       AND A TOTAL OF         14 INNER ITERATIONS.
    ------------------------------------------------

 OUTPUT CONTROL FOR STRESS PERIOD   11   TIME STEP    5
    PRINT BUDGET
    SAVE BUDGET
 UBUDSV SAVING "         STORAGE" ON UNIT102 AT TIME STEP     5, STRESS PERIOD   11
 UBUDSV SAVING "   CONSTANT HEAD" ON UNIT102 AT TIME STEP     5, STRESS PERIOD   11
 UBUDSV SAVING "FLOW RIGHT FACE " ON UNIT102 AT TIME STEP     5, STRESS PERIOD   11
 UBUDSV SAVING "FLOW FRONT FACE " ON UNIT102 AT TIME STEP     5, STRESS PERIOD   11

  HEAD DEP BOUNDS   PERIOD   11   STEP     5
 BOUNDARY      1   LAYER   1   ROW    13   COL     1   RATE   -0.278051    
 BOUNDARY      2   LAYER   1   ROW    14   COL     9   RATE     1.02743    



 STREAM LISTING     PERIOD     11   STEP        5

 LAYER ROW COL. STREAM  RCH.  FLOW INTO     FLOW TO   FLOW OUT OF   OVRLND.     DIRECT     STREAM       STREAM     STREAM     STREAM   STREAMBED  STREAMBED
                SEG.NO.  NO.  STRM. RCH.    AQUIFER    STRM. RCH.    RUNOFF     PRECIP       ET          HEAD       DEPTH      WIDTH   CONDCTNC.   GRADIENT

   1    1    1     1     1    3.5000E+00  8.3255E-10   3.5000E+00  0.000E+00  0.000E+00  0.000E+00  1.09371E+03  6.654E-01  5.047E+00  2.271E-10  1.222E+00
   1    2    2     1     2    3.5000E+00  1.2916E-09   3.5000E+00  0.000E+00  0.000E+00  0.000E+00  1.08872E+03  6.639E-01  5.036E+00  3.525E-10  1.221E+00
   1    3    3     1     3    3.5000E+00  1.1083E-09   3.5000E+00  0.000E+00  0.000E+00  0.000E+00  1.08308E+03  6.645E-01  5.041E+00  3.024E-10  1.222E+00
   1    3    4     1     4    3.5000E+00  1.0257E-09   3.5000E+00  0.000E+00  0.000E+00  0.000E+00  1.07807E+03  6.648E-01  5.043E+00  2.799E-10  1.222E+00
   1    4    5     2     1    1.5000E+00  2.5053E-01   1.2495E+00  0.000E+00  0.000E+00  0.000E+00  1.07215E+03  2.119E-01  1.200E+01  7.800E-02  1.071E+00
   1    5    6     2     2    1.2495E+00  1.9144E-01   1.0580E+00  0.000E+00  0.000E+00  0.000E+00  1.06670E+03  1.907E-01  1.200E+01  6.000E-02  1.064E+00
   1    6    6     2     3    1.0580E+00  1.9027E-01   8.6776E-01  0.000E+00  0.000E+00  0.000E+00  1.06196E+03  1.711E-01  1.200E+01  6.000E-02  1.057E+00
   1    7    6     2     4    8.6776E-01  1.8900E-01   6.7876E-01  0.000E+00  0.000E+00  0.000E+00  1.05723E+03  1.500E-01  1.200E+01  6.000E-02  1.050E+00
   1    8    6     2     5    6.7876E-01  1.8761E-01   4.9115E-01  0.000E+00  0.000E+00  0.000E+00  1.05249E+03  1.269E-01  1.200E+01  6.000E-02  1.042E+00
   1    3    5     3     1    2.0000E+00  2.8252E-01   1.7175E+00  0.000E+00  0.000E+00  0.000E+00  1.07555E+03  1.909E+00  9.636E+00  7.227E-02  1.955E+00
   1    3    6     3     2    1.7175E+00  2.4905E-01   1.4684E+00  0.000E+00  0.000E+00  0.000E+00  1.07264E+03  1.727E+00  8.909E+00  6.682E-02  1.864E+00
   1    3    7     3     3    1.4684E+00  1.9718E-01   1.2712E+00  0.000E+00  0.000E+00  0.000E+00  1.06987E+03  1.555E+00  8.218E+00  5.547E-02  1.777E+00
   1    4    8     3     4    1.2712E+00  2.2567E-01   1.0456E+00  0.000E+00  0.000E+00  0.000E+00  1.06682E+03  1.364E+00  7.455E+00  6.709E-02  1.682E+00
   1    5    8     3     5    1.0456E+00  1.5790E-01   8.8768E-01  0.000E+00  0.000E+00  0.000E+00  1.06362E+03  1.164E+00  6.655E+00  4.991E-02  1.582E+00
   1    6    8     3     6    8.8768E-01  5.5980E-02   8.3170E-01  0.000E+00  0.000E+00  0.000E+00  1.06158E+03  1.036E+00  6.145E+00  1.844E-02  1.518E+00
   1    5   10     4     1    1.0000E+01  9.0919E-02   9.9091E+00  0.000E+00  0.000E+00  0.000E+00  1.07836E+03  6.368E-01  1.000E+01  2.500E-02  1.212E+00
   1    5    9     4     2    9.9091E+00  1.8158E-01   9.7275E+00  0.000E+00  0.000E+00  0.000E+00  1.07154E+03  6.315E-01  1.000E+01  5.000E-02  1.211E+00
   1    6    8     4     3    9.7275E+00  1.2689E-01   9.6006E+00  0.000E+00  0.000E+00  0.000E+00  1.06381E+03  6.256E-01  1.000E+01  3.500E-02  1.209E+00
   1    6    8     5     1    1.0432E+01  2.2686E-09   1.0432E+01  0.000E+00  0.000E+00  0.000E+00  1.05868E+03  6.790E-01  1.542E+01  6.166E-10  1.226E+00
   1    7    7     5     2    1.0432E+01  2.8306E-09   1.0432E+01  0.000E+00  0.000E+00  0.000E+00  1.05418E+03  6.784E-01  1.539E+01  7.695E-10  1.226E+00
   1    8    7     5     3    1.0432E+01  1.9868E-09   1.0432E+01  0.000E+00  0.000E+00  0.000E+00  1.04993E+03  6.794E-01  1.543E+01  5.400E-10  1.226E+00
   1    8    6     5     4    1.0432E+01  1.4217E-09   1.0432E+01  0.000E+00  0.000E+00  0.000E+00  1.04693E+03  6.800E-01  1.545E+01  3.863E-10  1.227E+00
   1    9    6     6     1    1.0923E+01  2.2430E-01   1.0699E+01  0.000E+00  0.000E+00  0.000E+00  1.04347E+03  7.384E-01  1.200E+01  6.000E-02  1.246E+00
   1   10    7     6     2    1.0699E+01  2.2375E-01   1.0475E+01  0.000E+00  0.000E+00  0.000E+00  1.03891E+03  7.292E-01  1.200E+01  6.000E-02  1.243E+00
   1   11    7     6     3    1.0475E+01  2.2320E-01   1.0252E+01  0.000E+00  0.000E+00  0.000E+00  1.03436E+03  7.199E-01  1.200E+01  6.000E-02  1.240E+00
   1   12    7     6     4    1.0252E+01  2.2264E-01   1.0030E+01  0.000E+00  0.000E+00  0.000E+00  1.02980E+03  7.106E-01  1.200E+01  6.000E-02  1.237E+00
   1   13    7     6     5    1.0030E+01  8.8896E-02   9.9407E+00  0.000E+00  0.000E+00  0.000E+00  1.02661E+03  7.040E-01  1.200E+01  2.400E-02  1.235E+00
   1   14    9     7     1    1.5000E+02  2.9539E-08   1.5000E+02  0.000E+00  0.000E+00  0.000E+00  1.03986E+03  2.283E+00  5.528E+01  5.591E-09  1.761E+00
   1   13    8     7     2    1.5000E+02  3.2486E-14   1.5000E+02  0.000E+00  0.000E+00  0.000E+00  1.03478E+03  2.283E+00  5.527E+01  6.150E-15  1.761E+00
   1   13    7     7     3    1.5000E+02  2.9539E-08   1.5000E+02  0.000E+00  0.000E+00  0.000E+00  1.02970E+03  2.283E+00  5.528E+01  5.591E-09  1.761E+00
   1   13    6     8     1    1.5994E+02  2.4983E-13   1.5994E+02  0.000E+00  0.000E+00  0.000E+00  1.02475E+03  2.877E+00  4.172E+01  4.251E-14  1.959E+00
   1   13    5     8     2    1.5994E+02  2.4983E-14   1.5994E+02  0.000E+00  0.000E+00  0.000E+00  1.01850E+03  2.877E+00  4.172E+01  4.251E-15  1.959E+00
   1   13    4     8     3    1.5994E+02  2.0279E-18   1.5994E+02  0.000E+00  0.000E+00  0.000E+00  1.01225E+03  2.879E+00  4.174E+01  4.253E-19  1.589E+00
   1   13    3     8     4    1.5994E+02  5.8551E-10   1.5994E+02  0.000E+00  0.000E+00  0.000E+00  1.00601E+03  2.883E+00  4.181E+01  4.261E-10  4.581E-01
   1   13    2     8     5    1.5994E+02 -9.3387E-01   1.6087E+02  0.000E+00  0.000E+00  0.000E+00  9.99764E+02  2.889E+00  4.188E+01  4.268E+00 -7.293E-02
   1   13    1     8     6    1.6087E+02 -1.4012E+00   1.6228E+02  0.000E+00  0.000E+00  0.000E+00  9.94771E+02  2.896E+00  4.200E+01  2.568E+00 -1.819E-01
   1    6    8     9     1    0.0000E+00  0.0000E+00   0.0000E+00  0.000E+00  0.000E+00  0.000E+00  1.07850E+03  0.000E+00  4.000E+00  0.000E+00  1.000E+00



 UBDSV3 SAVING "     NETRECHARGE" ON UNIT 100 AT TIME STEP     5, STRESS PERIOD  11
 UBDSV3 SAVING "    NETDISCHARGE" ON UNIT 101 AT TIME STEP     5, STRESS PERIOD  11
 UBDSV3 SAVING "           GW ET" ON UNIT  61 AT TIME STEP     5, STRESS PERIOD  11
 UBDSV3 SAVING "    UZF RECHARGE" ON UNIT  61 AT TIME STEP     5, STRESS PERIOD  11
 UBDSV3 SAVING " SURFACE LEAKAGE" ON UNIT  61 AT TIME STEP     5, STRESS PERIOD  11
 UBDSV3 SAVING "       HORT+DUNN" ON UNIT  61 AT TIME STEP     5, STRESS PERIOD  11
 UBDSV3 SAVING "  STORAGE CHANGE" ON UNIT  61 AT TIME STEP     5, STRESS PERIOD  11


UNSATURATED ZONE PACKAGE VOLUMETRIC BUDGET FOR  TIME STEP     5 STRESS PERIOD   11
  ------------------------------------------------------------------------------



     CUMULATIVE VOLUMES      L**3       RATES FOR THIS TIME STEP      L**3/T
     ------------------                 ------------------------

           IN:                                      IN:
           ---                                      ---
        INFILTRATION =    52690068.1201          INFILTRATION =           0.8475

          OUT:                                     OUT:
          ----                                     ----
              UZF ET =   563695328.5022                UZF ET =           0.0734
        UZF RECHARGE =   666056792.5151          UZF RECHARGE =          26.0063

            IN - OUT = -1177062052.8971              IN - OUT =         -25.2322

          STORAGE:                                 STORAGE:
          --------                                 --------
      STORAGE CHANGE = -1177054265.2758        STORAGE CHANGE =         -25.2322

 PERCENT DISCREPANCY IS DIFFERENCE BETWEEN IN-OUT MINUS CHANGE IN STORAGE
 DIVIDED BY THE AVERAGE OF IN AND OUT TIMES 100

 PERCENT DISCREPANCY =          -0.00     PERCENT DISCREPANCY =           0.00






1
  VOLUMETRIC BUDGET FOR ENTIRE MODEL AT END OF TIME STEP    5, STRESS PERIOD  11
  ------------------------------------------------------------------------------

     CUMULATIVE VOLUMES      L**3       RATES FOR THIS TIME STEP      L**3/T
     ------------------                 ------------------------

           IN:                                      IN:
           ---                                      ---
             STORAGE =    16149497.0000               STORAGE =           0.0000
       CONSTANT HEAD =           0.0000         CONSTANT HEAD =           0.0000
               WELLS =           0.0000                 WELLS =           0.0000
     HEAD DEP BOUNDS =    28082432.0000       HEAD DEP BOUNDS =           1.0274
      STREAM LEAKAGE =   106024744.0000        STREAM LEAKAGE =           3.5593
        UZF RECHARGE =   666056960.0000          UZF RECHARGE =          26.0063
               GW ET =           0.0000                 GW ET =           0.0000
     SURFACE LEAKAGE =           0.0000       SURFACE LEAKAGE =           0.0000

            TOTAL IN =   816313600.0000              TOTAL IN =          30.5930

          OUT:                                     OUT:
          ----                                     ----
             STORAGE =   713444800.0000               STORAGE =          27.9011
       CONSTANT HEAD =           0.0000         CONSTANT HEAD =           0.0000
               WELLS =     1059111.1250                 WELLS =           0.0000
     HEAD DEP BOUNDS =     7580431.5000       HEAD DEP BOUNDS =           0.2781
      STREAM LEAKAGE =    56924288.0000        STREAM LEAKAGE =           2.3351
        UZF RECHARGE =           0.0000          UZF RECHARGE =           0.0000
               GW ET =    37246352.0000                 GW ET =       7.4696E-02
     SURFACE LEAKAGE =           0.0000       SURFACE LEAKAGE =           0.0000

           TOTAL OUT =   816254976.0000             TOTAL OUT =          30.5889

            IN - OUT =       58624.0000              IN - OUT =       4.1084E-03

 PERCENT DISCREPANCY =           0.01     PERCENT DISCREPANCY =           0.01






         TIME SUMMARY AT END OF TIME STEP    5 IN STRESS PERIOD   11
                    SECONDS     MINUTES      HOURS       DAYS        YEARS
                    -----------------------------------------------------------
   TIME STEP LENGTH  87600.      1460.0      24.333      1.0139     2.77588E-03
 STRESS PERIOD TIME 4.38000E+05  7300.0      121.67      5.0694     1.38794E-02
         TOTAL TIME 2.67180E+07 4.45300E+05  7421.7      309.24     0.84664    
1
 
 SOLVING FOR HEAD 
                                                   Max.-Head-Change                         Max.-Flux-Residual
  Residual-Control   Outer-Iter.   Inner-Iter.     Column Row Layer    Maximum-Head-Change  Column Row Layer    Maximum-Flux-Residual          L2-NORM 
          0                 1           2             3   13     1       0.1468370260E-01       3   13    1         0.7803296878E+00      0.2000570318E+01
          0                 2           2             8    2     1       0.2626651507E-02       3   13    1        -0.7803338532E-01      0.4495142659E+00
          0                 3           2             8    2     1       0.1180950143E-02       8    2    1         0.3066116570E-01      0.1616510474E+00
          0                 4           2             8    2     1       0.5309567601E-03       8    2    1         0.1378534073E-01      0.6963108904E-01
          0                 5           2             8    2     1       0.2387180325E-03       8    2    1         0.6197903724E-02      0.3100229851E-01
          0                 6           1             8    2     1       0.1073271932E-03       8    2    1         0.2786574270E-02      0.1387424306E-01
          0                 7           1             8    2     1       0.4825394072E-04       8    2    1         0.1252837927E-02      0.6214106081E-02
          0                 8           1             8    2     1       0.2169473082E-04       8    2    1         0.5632713076E-03      0.2783685543E-02
          0                 9           1             8    2     1       0.9753808083E-05       8    2    1         0.2532438032E-03      0.1247069985E-02

    ------------------------------------------------
       NWT REQUIRED            9 OUTER ITERATIONS 
       AND A TOTAL OF         14 INNER ITERATIONS.
    ------------------------------------------------

 NO OUTPUT CONTROL FOR STRESS PERIOD   11   TIME STEP    6
 
 SOLVING FOR HEAD 
                                                   Max.-Head-Change                         Max.-Flux-Residual
  Residual-Control   Outer-Iter.   Inner-Iter.     Column Row Layer    Maximum-Head-Change  Column Row Layer    Maximum-Flux-Residual          L2-NORM 
          0                 1           2             3   13     1       0.1437815938E-01       3   13    1         0.7640406144E+00      0.1986760258E+01
          0                 2           2             8    2     1       0.2626310833E-02       3   13    1        -0.7640457971E-01      0.4488101728E+00
          0                 3           2             8    2     1       0.1180793092E-02       8    2    1         0.3065717056E-01      0.1615643895E+00
          0                 4           2             8    2     1       0.5308844132E-03       8    2    1         0.1378349922E-01      0.6959492426E-01
          0                 5           2             8    2     1       0.2386847286E-03       8    2    1         0.6197055528E-02      0.3098590218E-01
          0                 6           1             8    2     1       0.1073118727E-03       8    2    1         0.2786183865E-02      0.1386685810E-01
          0                 7           1             8    2     1       0.4824689747E-04       8    2    1         0.1252658348E-02      0.6210785744E-02
          0                 8           1             8    2     1       0.2169149438E-04       8    2    1         0.5631887529E-03      0.2782193262E-02
          0                 9           1             8    2     1       0.9752321798E-05       8    2    1         0.2532058767E-03      0.1246399583E-02

    ------------------------------------------------
       NWT REQUIRED            9 OUTER ITERATIONS 
       AND A TOTAL OF         14 INNER ITERATIONS.
    ------------------------------------------------

 NO OUTPUT CONTROL FOR STRESS PERIOD   11   TIME STEP    7
 
 SOLVING FOR HEAD 
                                                   Max.-Head-Change                         Max.-Flux-Residual
  Residual-Control   Outer-Iter.   Inner-Iter.     Column Row Layer    Maximum-Head-Change  Column Row Layer    Maximum-Flux-Residual          L2-NORM 
          0                 1           2             3   13     1       0.1408106004E-01       3   13    1         0.7481872212E+00      0.1974072016E+01
          0                 2           2             8    2     1       0.2625956986E-02       3   13    1        -0.7481912432E-01      0.4481544127E+00
          0                 3           2             8    2     1       0.1180630112E-02       8    2    1         0.3065302161E-01      0.1614784812E+00
          0                 4           2             8    2     1       0.5308093977E-03       8    2    1         0.1378158848E-01      0.6955864786E-01
          0                 5           2             8    2     1       0.2386502232E-03       8    2    1         0.6196176172E-02      0.3096946689E-01
          0                 6           1             8    2     1       0.1072960112E-03       8    2    1         0.2785779438E-02      0.1385945798E-01
          0                 7           1             8    2     1       0.4823961036E-04       8    2    1         0.1252472463E-02      0.6207458542E-02
          0                 8           1             8    2     1       0.2168814914E-04       8    2    1         0.5631033709E-03      0.2780697767E-02
          0                 9           1             8    2     1       0.9750786366E-05       8    2    1         0.2531666753E-03      0.1245727452E-02

    ------------------------------------------------
       NWT REQUIRED            9 OUTER ITERATIONS 
       AND A TOTAL OF         14 INNER ITERATIONS.
    ------------------------------------------------

 NO OUTPUT CONTROL FOR STRESS PERIOD   11   TIME STEP    8
 
 SOLVING FOR HEAD 
                                                   Max.-Head-Change                         Max.-Flux-Residual
  Residual-Control   Outer-Iter.   Inner-Iter.     Column Row Layer    Maximum-Head-Change  Column Row Layer    Maximum-Flux-Residual          L2-NORM 
          0                 1           2             3   13     1       0.1379233354E-01       3   13    1         0.7327768454E+00      0.1962401070E+01
          0                 2           2             8    2     1       0.2625570885E-02       3   13    1        -0.7327813433E-01      0.4475512629E+00
          0                 3           2             8    2     1       0.1180452731E-02       8    2    1         0.3064849664E-01      0.1613943671E+00
          0                 4           2             8    2     1       0.5307279533E-03       8    2    1         0.1377950987E-01      0.6952256505E-01
          0                 5           2             8    2     1       0.2386128482E-03       8    2    1         0.6195221863E-02      0.3095307034E-01
          0                 6           1             8    2     1       0.1072788684E-03       8    2    1         0.2785341543E-02      0.1385206874E-01
          0                 7           1             8    2     1       0.4823175162E-04       8    2    1         0.1252271636E-02      0.6204135644E-02
          0                 8           1             8    2     1       0.2168454780E-04       8    2    1         0.5630113110E-03      0.2779204171E-02
          0                 9           1             8    2     1       0.9749137134E-05       8    2    1         0.2531244977E-03      0.1245068946E-02

    ------------------------------------------------
       NWT REQUIRED            9 OUTER ITERATIONS 
       AND A TOTAL OF         14 INNER ITERATIONS.
    ------------------------------------------------

 NO OUTPUT CONTROL FOR STRESS PERIOD   11   TIME STEP    9
 
 SOLVING FOR HEAD 
                                                   Max.-Head-Change                         Max.-Flux-Residual
  Residual-Control   Outer-Iter.   Inner-Iter.     Column Row Layer    Maximum-Head-Change  Column Row Layer    Maximum-Flux-Residual          L2-NORM 
          0                 1           2             3   13     1       0.1351177835E-01       3   13    1         0.7177991809E+00      0.1951631140E+01
          0                 2           2             8    2     1       0.2625191504E-02       3   13    1        -0.7178035880E-01      0.4469916709E+00
          0                 3           2             8    2     1       0.1180278358E-02       8    2    1         0.3064405004E-01      0.1613119679E+00
          0                 4           2             8    2     1       0.5306478543E-03       8    2    1         0.1377746632E-01      0.6948676984E-01
          0                 5           2             8    2     1       0.2385760757E-03       8    2    1         0.6194283258E-02      0.3093680406E-01
          0                 6           1             8    2     1       0.1072619955E-03       8    2    1         0.2784910674E-02      0.1384473956E-01
          0                 7           1             8    2     1       0.4822401356E-04       8    2    1         0.1252073949E-02      0.6200840276E-02
          0                 8           1             8    2     1       0.2168100047E-04       8    2    1         0.5629206554E-03      0.2777723874E-02
          0                 9           1             8    2     1       0.9747512162E-05       8    2    1         0.2530829483E-03      0.1244390234E-02

    ------------------------------------------------
       NWT REQUIRED            9 OUTER ITERATIONS 
       AND A TOTAL OF         14 INNER ITERATIONS.
    ------------------------------------------------

 OUTPUT CONTROL FOR STRESS PERIOD   11   TIME STEP   10
    PRINT BUDGET
    SAVE BUDGET
 UBUDSV SAVING "         STORAGE" ON UNIT102 AT TIME STEP    10, STRESS PERIOD   11
 UBUDSV SAVING "   CONSTANT HEAD" ON UNIT102 AT TIME STEP    10, STRESS PERIOD   11
 UBUDSV SAVING "FLOW RIGHT FACE " ON UNIT102 AT TIME STEP    10, STRESS PERIOD   11
 UBUDSV SAVING "FLOW FRONT FACE " ON UNIT102 AT TIME STEP    10, STRESS PERIOD   11

  HEAD DEP BOUNDS   PERIOD   11   STEP    10
 BOUNDARY      1   LAYER   1   ROW    13   COL     1   RATE   -0.279354    
 BOUNDARY      2   LAYER   1   ROW    14   COL     9   RATE     1.02662    



 STREAM LISTING     PERIOD     11   STEP       10

 LAYER ROW COL. STREAM  RCH.  FLOW INTO     FLOW TO   FLOW OUT OF   OVRLND.     DIRECT     STREAM       STREAM     STREAM     STREAM   STREAMBED  STREAMBED
                SEG.NO.  NO.  STRM. RCH.    AQUIFER    STRM. RCH.    RUNOFF     PRECIP       ET          HEAD       DEPTH      WIDTH   CONDCTNC.   GRADIENT

   1    1    1     1     1    3.5000E+00  8.3255E-10   3.5000E+00  0.000E+00  0.000E+00  0.000E+00  1.09371E+03  6.654E-01  5.047E+00  2.271E-10  1.222E+00
   1    2    2     1     2    3.5000E+00  1.2916E-09   3.5000E+00  0.000E+00  0.000E+00  0.000E+00  1.08872E+03  6.639E-01  5.036E+00  3.525E-10  1.221E+00
   1    3    3     1     3    3.5000E+00  1.1083E-09   3.5000E+00  0.000E+00  0.000E+00  0.000E+00  1.08308E+03  6.645E-01  5.041E+00  3.024E-10  1.222E+00
   1    3    4     1     4    3.5000E+00  1.0257E-09   3.5000E+00  0.000E+00  0.000E+00  0.000E+00  1.07807E+03  6.648E-01  5.043E+00  2.799E-10  1.222E+00
   1    4    5     2     1    1.5000E+00  2.5053E-01   1.2495E+00  0.000E+00  0.000E+00  0.000E+00  1.07215E+03  2.119E-01  1.200E+01  7.800E-02  1.071E+00
   1    5    6     2     2    1.2495E+00  1.9144E-01   1.0580E+00  0.000E+00  0.000E+00  0.000E+00  1.06670E+03  1.907E-01  1.200E+01  6.000E-02  1.064E+00
   1    6    6     2     3    1.0580E+00  1.9027E-01   8.6776E-01  0.000E+00  0.000E+00  0.000E+00  1.06196E+03  1.711E-01  1.200E+01  6.000E-02  1.057E+00
   1    7    6     2     4    8.6776E-01  1.8900E-01   6.7876E-01  0.000E+00  0.000E+00  0.000E+00  1.05723E+03  1.500E-01  1.200E+01  6.000E-02  1.050E+00
   1    8    6     2     5    6.7876E-01  1.8761E-01   4.9115E-01  0.000E+00  0.000E+00  0.000E+00  1.05249E+03  1.269E-01  1.200E+01  6.000E-02  1.042E+00
   1    3    5     3     1    2.0000E+00  2.8252E-01   1.7175E+00  0.000E+00  0.000E+00  0.000E+00  1.07555E+03  1.909E+00  9.636E+00  7.227E-02  1.955E+00
   1    3    6     3     2    1.7175E+00  2.4905E-01   1.4684E+00  0.000E+00  0.000E+00  0.000E+00  1.07264E+03  1.727E+00  8.909E+00  6.682E-02  1.864E+00
   1    3    7     3     3    1.4684E+00  1.9718E-01   1.2712E+00  0.000E+00  0.000E+00  0.000E+00  1.06987E+03  1.555E+00  8.218E+00  5.547E-02  1.777E+00
   1    4    8     3     4    1.2712E+00  2.2567E-01   1.0456E+00  0.000E+00  0.000E+00  0.000E+00  1.06682E+03  1.364E+00  7.455E+00  6.709E-02  1.682E+00
   1    5    8     3     5    1.0456E+00  1.5790E-01   8.8768E-01  0.000E+00  0.000E+00  0.000E+00  1.06362E+03  1.164E+00  6.655E+00  4.991E-02  1.582E+00
   1    6    8     3     6    8.8768E-01  5.5980E-02   8.3170E-01  0.000E+00  0.000E+00  0.000E+00  1.06158E+03  1.036E+00  6.145E+00  1.844E-02  1.518E+00
   1    5   10     4     1    1.0000E+01  9.0919E-02   9.9091E+00  0.000E+00  0.000E+00  0.000E+00  1.07836E+03  6.368E-01  1.000E+01  2.500E-02  1.212E+00
   1    5    9     4     2    9.9091E+00  1.8158E-01   9.7275E+00  0.000E+00  0.000E+00  0.000E+00  1.07154E+03  6.315E-01  1.000E+01  5.000E-02  1.211E+00
   1    6    8     4     3    9.7275E+00  1.2689E-01   9.6006E+00  0.000E+00  0.000E+00  0.000E+00  1.06381E+03  6.256E-01  1.000E+01  3.500E-02  1.209E+00
   1    6    8     5     1    1.0432E+01  2.2686E-09   1.0432E+01  0.000E+00  0.000E+00  0.000E+00  1.05868E+03  6.790E-01  1.542E+01  6.166E-10  1.226E+00
   1    7    7     5     2    1.0432E+01  2.8306E-09   1.0432E+01  0.000E+00  0.000E+00  0.000E+00  1.05418E+03  6.784E-01  1.539E+01  7.695E-10  1.226E+00
   1    8    7     5     3    1.0432E+01  1.9868E-09   1.0432E+01  0.000E+00  0.000E+00  0.000E+00  1.04993E+03  6.794E-01  1.543E+01  5.400E-10  1.226E+00
   1    8    6     5     4    1.0432E+01  1.4217E-09   1.0432E+01  0.000E+00  0.000E+00  0.000E+00  1.04693E+03  6.800E-01  1.545E+01  3.863E-10  1.227E+00
   1    9    6     6     1    1.0923E+01  2.2430E-01   1.0699E+01  0.000E+00  0.000E+00  0.000E+00  1.04347E+03  7.384E-01  1.200E+01  6.000E-02  1.246E+00
   1   10    7     6     2    1.0699E+01  2.2375E-01   1.0475E+01  0.000E+00  0.000E+00  0.000E+00  1.03891E+03  7.292E-01  1.200E+01  6.000E-02  1.243E+00
   1   11    7     6     3    1.0475E+01  2.2320E-01   1.0252E+01  0.000E+00  0.000E+00  0.000E+00  1.03436E+03  7.199E-01  1.200E+01  6.000E-02  1.240E+00
   1   12    7     6     4    1.0252E+01  2.2264E-01   1.0030E+01  0.000E+00  0.000E+00  0.000E+00  1.02980E+03  7.106E-01  1.200E+01  6.000E-02  1.237E+00
   1   13    7     6     5    1.0030E+01  8.8896E-02   9.9407E+00  0.000E+00  0.000E+00  0.000E+00  1.02661E+03  7.040E-01  1.200E+01  2.400E-02  1.235E+00
   1   14    9     7     1    1.5000E+02  2.9539E-08   1.5000E+02  0.000E+00  0.000E+00  0.000E+00  1.03986E+03  2.283E+00  5.528E+01  5.591E-09  1.761E+00
   1   13    8     7     2    1.5000E+02  3.2486E-14   1.5000E+02  0.000E+00  0.000E+00  0.000E+00  1.03478E+03  2.283E+00  5.527E+01  6.150E-15  1.761E+00
   1   13    7     7     3    1.5000E+02  2.9539E-08   1.5000E+02  0.000E+00  0.000E+00  0.000E+00  1.02970E+03  2.283E+00  5.528E+01  5.591E-09  1.761E+00
   1   13    6     8     1    1.5994E+02  2.4983E-13   1.5994E+02  0.000E+00  0.000E+00  0.000E+00  1.02475E+03  2.877E+00  4.172E+01  4.251E-14  1.959E+00
   1   13    5     8     2    1.5994E+02  2.4983E-14   1.5994E+02  0.000E+00  0.000E+00  0.000E+00  1.01850E+03  2.877E+00  4.172E+01  4.251E-15  1.959E+00
   1   13    4     8     3    1.5994E+02  2.0194E-17   1.5994E+02  0.000E+00  0.000E+00  0.000E+00  1.01225E+03  2.879E+00  4.174E+01  4.253E-18  1.583E+00
   1   13    3     8     4    1.5994E+02  5.5824E-10   1.5994E+02  0.000E+00  0.000E+00  0.000E+00  1.00601E+03  2.884E+00  4.181E+01  4.261E-10  4.367E-01
   1   13    2     8     5    1.5994E+02 -1.0455E+00   1.6099E+02  0.000E+00  0.000E+00  0.000E+00  9.99764E+02  2.889E+00  4.189E+01  4.269E+00 -8.164E-02
   1   13    1     8     6    1.6099E+02 -1.4871E+00   1.6247E+02  0.000E+00  0.000E+00  0.000E+00  9.94773E+02  2.898E+00  4.201E+01  2.569E+00 -1.930E-01
   1    6    8     9     1    0.0000E+00  0.0000E+00   0.0000E+00  0.000E+00  0.000E+00  0.000E+00  1.07850E+03  0.000E+00  4.000E+00  0.000E+00  1.000E+00



 UBDSV3 SAVING "     NETRECHARGE" ON UNIT 100 AT TIME STEP    10, STRESS PERIOD  11
 UBDSV3 SAVING "    NETDISCHARGE" ON UNIT 101 AT TIME STEP    10, STRESS PERIOD  11
 UBDSV3 SAVING "           GW ET" ON UNIT  61 AT TIME STEP    10, STRESS PERIOD  11
 UBDSV3 SAVING "    UZF RECHARGE" ON UNIT  61 AT TIME STEP    10, STRESS PERIOD  11
 UBDSV3 SAVING " SURFACE LEAKAGE" ON UNIT  61 AT TIME STEP    10, STRESS PERIOD  11
 UBDSV3 SAVING "       HORT+DUNN" ON UNIT  61 AT TIME STEP    10, STRESS PERIOD  11
 UBDSV3 SAVING "  STORAGE CHANGE" ON UNIT  61 AT TIME STEP    10, STRESS PERIOD  11


UNSATURATED ZONE PACKAGE VOLUMETRIC BUDGET FOR  TIME STEP    10 STRESS PERIOD   11
  ------------------------------------------------------------------------------



     CUMULATIVE VOLUMES      L**3       RATES FOR THIS TIME STEP      L**3/T
     ------------------                 ------------------------

           IN:                                      IN:
           ---                                      ---
        INFILTRATION =    53061273.1201          INFILTRATION =           0.8475

          OUT:                                     OUT:
          ----                                     ----
              UZF ET =   563728009.9478                UZF ET =           0.0755
        UZF RECHARGE =   677449066.8354          UZF RECHARGE =          26.0133

            IN - OUT = -1188115803.6631              IN - OUT =         -25.2413

          STORAGE:                                 STORAGE:
          --------                                 --------
      STORAGE CHANGE = -1188108016.0450        STORAGE CHANGE =         -25.2413

 PERCENT DISCREPANCY IS DIFFERENCE BETWEEN IN-OUT MINUS CHANGE IN STORAGE
 DIVIDED BY THE AVERAGE OF IN AND OUT TIMES 100

 PERCENT DISCREPANCY =          -0.00     PERCENT DISCREPANCY =           0.00






1
  VOLUMETRIC BUDGET FOR ENTIRE MODEL AT END OF TIME STEP   10, STRESS PERIOD  11
  ------------------------------------------------------------------------------

     CUMULATIVE VOLUMES      L**3       RATES FOR THIS TIME STEP      L**3/T
     ------------------                 ------------------------

           IN:                                      IN:
           ---                                      ---
             STORAGE =    16149497.0000               STORAGE =           0.0000
       CONSTANT HEAD =           0.0000         CONSTANT HEAD =           0.0000
               WELLS =           0.0000                 WELLS =           0.0000
     HEAD DEP BOUNDS =    28532232.0000       HEAD DEP BOUNDS =           1.0266
      STREAM LEAKAGE =   107583744.0000        STREAM LEAKAGE =           3.5593
        UZF RECHARGE =   677449280.0000          UZF RECHARGE =          26.0133
               GW ET =           0.0000                 GW ET =           0.0000
     SURFACE LEAKAGE =           0.0000       SURFACE LEAKAGE =           0.0000

            TOTAL IN =   829714752.0000              TOTAL IN =          30.5992

          OUT:                                     OUT:
          ----                                     ----
             STORAGE =   725612736.0000               STORAGE =          27.7085
       CONSTANT HEAD =           0.0000         CONSTANT HEAD =           0.0000
               WELLS =     1059111.1250                 WELLS =           0.0000
     HEAD DEP BOUNDS =     7702571.0000       HEAD DEP BOUNDS =           0.2794
      STREAM LEAKAGE =    58000776.0000        STREAM LEAKAGE =           2.5326
        UZF RECHARGE =           0.0000          UZF RECHARGE =           0.0000
               GW ET =    37279060.0000                 GW ET =       7.4665E-02
     SURFACE LEAKAGE =           0.0000       SURFACE LEAKAGE =           0.0000

           TOTAL OUT =   829654272.0000             TOTAL OUT =          30.5951

            IN - OUT =       60480.0000              IN - OUT =       4.1065E-03

 PERCENT DISCREPANCY =           0.01     PERCENT DISCREPANCY =           0.01






         TIME SUMMARY AT END OF TIME STEP   10 IN STRESS PERIOD   11
                    SECONDS     MINUTES      HOURS       DAYS        YEARS
                    -----------------------------------------------------------
   TIME STEP LENGTH  87600.      1460.0      24.333      1.0139     2.77588E-03
 STRESS PERIOD TIME 8.76000E+05  14600.      243.33      10.139     2.77588E-02
         TOTAL TIME 2.71560E+07 4.52600E+05  7543.3      314.31     0.86052    
1
 
 SOLVING FOR HEAD 
                                                   Max.-Head-Change                         Max.-Flux-Residual
  Residual-Control   Outer-Iter.   Inner-Iter.     Column Row Layer    Maximum-Head-Change  Column Row Layer    Maximum-Flux-Residual          L2-NORM 
          0                 1           2             3   13     1       0.1323919741E-01       3   13    1         0.7032444036E+00      0.1941571787E+01
          0                 2           2             8    2     1       0.2624799587E-02       3   13    1        -0.7032431964E-01      0.4464548600E+00
          0                 3           2             8    2     1       0.1180098413E-02       8    2    1         0.3063945741E-01      0.1612292840E+00
          0                 4           2             8    2     1       0.5305652787E-03       8    2    1         0.1377535787E-01      0.6945090252E-01
          0                 5           2             8    2     1       0.2385382018E-03       8    2    1         0.6193315799E-02      0.3092052386E-01
          0                 6           1             8    2     1       0.1072446333E-03       8    2    1         0.2784466991E-02      0.1383763265E-01
          0                 7           1             8    2     1       0.4821605790E-04       8    2    1         0.1251870572E-02      0.6198089799E-02
          0                 8           1             8    2     1       0.2167735723E-04       8    2    1         0.5628274775E-03      0.2776249713E-02
          0                 9           1             8    2     1       0.9745843922E-05       8    2    1         0.2530402727E-03      0.1243738601E-02

    ------------------------------------------------
       NWT REQUIRED            9 OUTER ITERATIONS 
       AND A TOTAL OF         14 INNER ITERATIONS.
    ------------------------------------------------

 NO OUTPUT CONTROL FOR STRESS PERIOD   11   TIME STEP   11
 
 SOLVING FOR HEAD 
                                                   Max.-Head-Change                         Max.-Flux-Residual
  Residual-Control   Outer-Iter.   Inner-Iter.     Column Row Layer    Maximum-Head-Change  Column Row Layer    Maximum-Flux-Residual          L2-NORM 
          0                 1           2             3   13     1       0.1297440509E-01       3   13    1         0.6891029446E+00      0.1932363271E+01
          0                 2           2             8    2     1       0.2624375715E-02       3   13    1        -0.6891613730E-01      0.4459684475E+00
          0                 3           2             8    2     1       0.1179904129E-02       8    2    1         0.3063449191E-01      0.1611486147E+00
          0                 4           2             8    2     1       0.5304762693E-03       8    2    1         0.1377308211E-01      0.6941510046E-01
          0                 5           2             8    2     1       0.2384974413E-03       8    2    1         0.6192273266E-02      0.3090423731E-01
          0                 6           1             8    2     1       0.1072259755E-03       8    2    1         0.2783989615E-02      0.1383006506E-01
          0                 7           1             8    2     1       0.4820752136E-04       8    2    1         0.1251652077E-02      0.6194239559E-02
          0                 8           1             8    2     1       0.2167345262E-04       8    2    1         0.5627275092E-03      0.2774755005E-02
          0                 9           1             8    2     1       0.9744058879E-05       8    2    1         0.2529945553E-03      0.1243056042E-02

    ------------------------------------------------
       NWT REQUIRED            9 OUTER ITERATIONS 
       AND A TOTAL OF         14 INNER ITERATIONS.
    ------------------------------------------------

 NO OUTPUT CONTROL FOR STRESS PERIOD   11   TIME STEP   12
 
 SOLVING FOR HEAD 
                                                   Max.-Head-Change                         Max.-Flux-Residual
  Residual-Control   Outer-Iter.   Inner-Iter.     Column Row Layer    Maximum-Head-Change  Column Row Layer    Maximum-Flux-Residual          L2-NORM 
          0                 1           2             3   13     1       0.1271683584E-01       3   13    1         0.6753569592E+00      0.1923713065E+01
          0                 2           2             8    2     1       0.2623958874E-02       8    2    1         0.6812725497E-01      0.4454868356E+00
          0                 3           2             8    2     1       0.1179712983E-02       8    2    1         0.3062960837E-01      0.1610682766E+00
          0                 4           2             8    2     1       0.5303886611E-03       8    2    1         0.1377084293E-01      0.6937948357E-01
          0                 5           2             8    2     1       0.2384573067E-03       8    2    1         0.6191247065E-02      0.3088804188E-01
          0                 6           1             8    2     1       0.1072075971E-03       8    2    1         0.2783519528E-02      0.1382276634E-01
          0                 7           1             8    2     1       0.4819910913E-04       8    2    1         0.1251436834E-02      0.6190956354E-02
          0                 8           1             8    2     1       0.2166960404E-04       8    2    1         0.5626289992E-03      0.2773278742E-02
          0                 9           1             8    2     1       0.9742298598E-05       8    2    1         0.2529494856E-03      0.1242392369E-02

    ------------------------------------------------
       NWT REQUIRED            9 OUTER ITERATIONS 
       AND A TOTAL OF         14 INNER ITERATIONS.
    ------------------------------------------------

 NO OUTPUT CONTROL FOR STRESS PERIOD   11   TIME STEP   13
 
 SOLVING FOR HEAD 
                                                   Max.-Head-Change                         Max.-Flux-Residual
  Residual-Control   Outer-Iter.   Inner-Iter.     Column Row Layer    Maximum-Head-Change  Column Row Layer    Maximum-Flux-Residual          L2-NORM 
          0                 1           2             3   13     1       0.1246656428E-01       3   13    1         0.6619861897E+00      0.1915758119E+01
          0                 2           2             8    2     1       0.2623529801E-02       8    2    1         0.6811628901E-01      0.4450479203E+00
          0                 3           2             8    2     1       0.1179516403E-02       8    2    1         0.3062458235E-01      0.1609879836E+00
          0                 4           2             8    2     1       0.5302986374E-03       8    2    1         0.1376854043E-01      0.6934360209E-01
          0                 5           2             8    2     1       0.2384160982E-03       8    2    1         0.6190192729E-02      0.3087173191E-01
          0                 6           1             8    2     1       0.1071887419E-03       8    2    1         0.2783036947E-02      0.1381541709E-01
          0                 7           1             8    2     1       0.4819048517E-04       8    2    1         0.1251216044E-02      0.6187650969E-02
          0                 8           1             8    2     1       0.2166566104E-04       8    2    1         0.5625280244E-03      0.2771792747E-02
          0                 9           1             8    2     1       0.9740496798E-05       8    2    1         0.2529033272E-03      0.1241724443E-02

    ------------------------------------------------
       NWT REQUIRED            9 OUTER ITERATIONS 
       AND A TOTAL OF         14 INNER ITERATIONS.
    ------------------------------------------------

 NO OUTPUT CONTROL FOR STRESS PERIOD   11   TIME STEP   14
 
 SOLVING FOR HEAD 
                                                   Max.-Head-Change                         Max.-Flux-Residual
  Residual-Control   Outer-Iter.   Inner-Iter.     Column Row Layer    Maximum-Head-Change  Column Row Layer    Maximum-Flux-Residual          L2-NORM 
          0                 1           2             3   13     1       0.1222349639E-01       3   13    1         0.6489982337E+00      0.1908353949E+01
          0                 2           2             8    2     1       0.2623069111E-02       8    2    1         0.6810450030E-01      0.4446388801E+00
          0                 3           2             8    2     1       0.1179305645E-02       8    2    1         0.3061918744E-01      0.1609092809E+00
          0                 4           2             8    2     1       0.5302022575E-03       8    2    1         0.1376607254E-01      0.6930804951E-01
          0                 5           2             8    2     1       0.2383720401E-03       8    2    1         0.6189064232E-02      0.3085555056E-01
          0                 6           1             8    2     1       0.1071686092E-03       8    2    1         0.2782521111E-02      0.1380812357E-01
          0                 7           1             8    2     1       0.4818128809E-04       8    2    1         0.1250980336E-02      0.6184369731E-02
          0                 8           1             8    2     1       0.2166146117E-04       8    2    1         0.5624203591E-03      0.2770317094E-02
          0                 9           1             8    2     1       0.9738579697E-05       8    2    1         0.2528541669E-03      0.1241060819E-02

    ------------------------------------------------
       NWT REQUIRED            9 OUTER ITERATIONS 
       AND A TOTAL OF         14 INNER ITERATIONS.
    ------------------------------------------------

 OUTPUT CONTROL FOR STRESS PERIOD   11   TIME STEP   15
    PRINT BUDGET
    PRINT HEAD FOR ALL LAYERS
    SAVE HEAD FOR ALL LAYERS
    SAVE BUDGET
 UBUDSV SAVING "         STORAGE" ON UNIT102 AT TIME STEP    15, STRESS PERIOD   11
 UBUDSV SAVING "   CONSTANT HEAD" ON UNIT102 AT TIME STEP    15, STRESS PERIOD   11
 UBUDSV SAVING "FLOW RIGHT FACE " ON UNIT102 AT TIME STEP    15, STRESS PERIOD   11
 UBUDSV SAVING "FLOW FRONT FACE " ON UNIT102 AT TIME STEP    15, STRESS PERIOD   11

  HEAD DEP BOUNDS   PERIOD   11   STEP    15
 BOUNDARY      1   LAYER   1   ROW    13   COL     1   RATE   -0.280390    
 BOUNDARY      2   LAYER   1   ROW    14   COL     9   RATE     1.02581    



 STREAM LISTING     PERIOD     11   STEP       15

 LAYER ROW COL. STREAM  RCH.  FLOW INTO     FLOW TO   FLOW OUT OF   OVRLND.     DIRECT     STREAM       STREAM     STREAM     STREAM   STREAMBED  STREAMBED
                SEG.NO.  NO.  STRM. RCH.    AQUIFER    STRM. RCH.    RUNOFF     PRECIP       ET          HEAD       DEPTH      WIDTH   CONDCTNC.   GRADIENT

   1    1    1     1     1    3.5000E+00  8.3255E-10   3.5000E+00  0.000E+00  0.000E+00  0.000E+00  1.09371E+03  6.654E-01  5.047E+00  2.271E-10  1.222E+00
   1    2    2     1     2    3.5000E+00  1.2916E-09   3.5000E+00  0.000E+00  0.000E+00  0.000E+00  1.08872E+03  6.639E-01  5.036E+00  3.525E-10  1.221E+00
   1    3    3     1     3    3.5000E+00  1.1083E-09   3.5000E+00  0.000E+00  0.000E+00  0.000E+00  1.08308E+03  6.645E-01  5.041E+00  3.024E-10  1.222E+00
   1    3    4     1     4    3.5000E+00  1.0257E-09   3.5000E+00  0.000E+00  0.000E+00  0.000E+00  1.07807E+03  6.648E-01  5.043E+00  2.799E-10  1.222E+00
   1    4    5     2     1    1.5000E+00  2.5053E-01   1.2495E+00  0.000E+00  0.000E+00  0.000E+00  1.07215E+03  2.119E-01  1.200E+01  7.800E-02  1.071E+00
   1    5    6     2     2    1.2495E+00  1.9144E-01   1.0580E+00  0.000E+00  0.000E+00  0.000E+00  1.06670E+03  1.907E-01  1.200E+01  6.000E-02  1.064E+00
   1    6    6     2     3    1.0580E+00  1.9027E-01   8.6776E-01  0.000E+00  0.000E+00  0.000E+00  1.06196E+03  1.711E-01  1.200E+01  6.000E-02  1.057E+00
   1    7    6     2     4    8.6776E-01  1.8900E-01   6.7876E-01  0.000E+00  0.000E+00  0.000E+00  1.05723E+03  1.500E-01  1.200E+01  6.000E-02  1.050E+00
   1    8    6     2     5    6.7876E-01  1.8761E-01   4.9115E-01  0.000E+00  0.000E+00  0.000E+00  1.05249E+03  1.269E-01  1.200E+01  6.000E-02  1.042E+00
   1    3    5     3     1    2.0000E+00  2.8252E-01   1.7175E+00  0.000E+00  0.000E+00  0.000E+00  1.07555E+03  1.909E+00  9.636E+00  7.227E-02  1.955E+00
   1    3    6     3     2    1.7175E+00  2.4905E-01   1.4684E+00  0.000E+00  0.000E+00  0.000E+00  1.07264E+03  1.727E+00  8.909E+00  6.682E-02  1.864E+00
   1    3    7     3     3    1.4684E+00  1.9718E-01   1.2712E+00  0.000E+00  0.000E+00  0.000E+00  1.06987E+03  1.555E+00  8.218E+00  5.547E-02  1.777E+00
   1    4    8     3     4    1.2712E+00  2.2567E-01   1.0456E+00  0.000E+00  0.000E+00  0.000E+00  1.06682E+03  1.364E+00  7.455E+00  6.709E-02  1.682E+00
   1    5    8     3     5    1.0456E+00  1.5790E-01   8.8768E-01  0.000E+00  0.000E+00  0.000E+00  1.06362E+03  1.164E+00  6.655E+00  4.991E-02  1.582E+00
   1    6    8     3     6    8.8768E-01  5.5980E-02   8.3170E-01  0.000E+00  0.000E+00  0.000E+00  1.06158E+03  1.036E+00  6.145E+00  1.844E-02  1.518E+00
   1    5   10     4     1    1.0000E+01  9.0919E-02   9.9091E+00  0.000E+00  0.000E+00  0.000E+00  1.07836E+03  6.368E-01  1.000E+01  2.500E-02  1.212E+00
   1    5    9     4     2    9.9091E+00  1.8158E-01   9.7275E+00  0.000E+00  0.000E+00  0.000E+00  1.07154E+03  6.315E-01  1.000E+01  5.000E-02  1.211E+00
   1    6    8     4     3    9.7275E+00  1.2689E-01   9.6006E+00  0.000E+00  0.000E+00  0.000E+00  1.06381E+03  6.256E-01  1.000E+01  3.500E-02  1.209E+00
   1    6    8     5     1    1.0432E+01  2.2686E-09   1.0432E+01  0.000E+00  0.000E+00  0.000E+00  1.05868E+03  6.790E-01  1.542E+01  6.166E-10  1.226E+00
   1    7    7     5     2    1.0432E+01  2.8306E-09   1.0432E+01  0.000E+00  0.000E+00  0.000E+00  1.05418E+03  6.784E-01  1.539E+01  7.695E-10  1.226E+00
   1    8    7     5     3    1.0432E+01  1.9868E-09   1.0432E+01  0.000E+00  0.000E+00  0.000E+00  1.04993E+03  6.794E-01  1.543E+01  5.400E-10  1.226E+00
   1    8    6     5     4    1.0432E+01  1.4217E-09   1.0432E+01  0.000E+00  0.000E+00  0.000E+00  1.04693E+03  6.800E-01  1.545E+01  3.863E-10  1.227E+00
   1    9    6     6     1    1.0923E+01  2.2430E-01   1.0699E+01  0.000E+00  0.000E+00  0.000E+00  1.04347E+03  7.384E-01  1.200E+01  6.000E-02  1.246E+00
   1   10    7     6     2    1.0699E+01  2.2375E-01   1.0475E+01  0.000E+00  0.000E+00  0.000E+00  1.03891E+03  7.292E-01  1.200E+01  6.000E-02  1.243E+00
   1   11    7     6     3    1.0475E+01  2.2320E-01   1.0252E+01  0.000E+00  0.000E+00  0.000E+00  1.03436E+03  7.199E-01  1.200E+01  6.000E-02  1.240E+00
   1   12    7     6     4    1.0252E+01  2.2264E-01   1.0030E+01  0.000E+00  0.000E+00  0.000E+00  1.02980E+03  7.106E-01  1.200E+01  6.000E-02  1.237E+00
   1   13    7     6     5    1.0030E+01  8.8896E-02   9.9407E+00  0.000E+00  0.000E+00  0.000E+00  1.02661E+03  7.040E-01  1.200E+01  2.400E-02  1.235E+00
   1   14    9     7     1    1.5000E+02  2.9539E-08   1.5000E+02  0.000E+00  0.000E+00  0.000E+00  1.03986E+03  2.283E+00  5.528E+01  5.591E-09  1.761E+00
   1   13    8     7     2    1.5000E+02  3.2486E-14   1.5000E+02  0.000E+00  0.000E+00  0.000E+00  1.03478E+03  2.283E+00  5.527E+01  6.150E-15  1.761E+00
   1   13    7     7     3    1.5000E+02  2.9539E-08   1.5000E+02  0.000E+00  0.000E+00  0.000E+00  1.02970E+03  2.283E+00  5.528E+01  5.591E-09  1.761E+00
   1   13    6     8     1    1.5994E+02  2.4983E-13   1.5994E+02  0.000E+00  0.000E+00  0.000E+00  1.02475E+03  2.877E+00  4.172E+01  4.251E-14  1.959E+00
   1   13    5     8     2    1.5994E+02  2.4983E-14   1.5994E+02  0.000E+00  0.000E+00  0.000E+00  1.01850E+03  2.877E+00  4.172E+01  4.251E-15  1.959E+00
   1   13    4     8     3    1.5994E+02  2.0102E-09   1.5994E+02  0.000E+00  0.000E+00  0.000E+00  1.01225E+03  2.879E+00  4.174E+01  4.253E-10  1.575E+00
   1   13    3     8     4    1.5994E+02  5.3360E-09   1.5994E+02  0.000E+00  0.000E+00  0.000E+00  1.00601E+03  2.884E+00  4.181E+01  4.261E-09  4.174E-01
   1   13    2     8     5    1.5994E+02 -1.1301E+00   1.6107E+02  0.000E+00  0.000E+00  0.000E+00  9.99764E+02  2.889E+00  4.189E+01  4.269E+00 -8.824E-02
   1   13    1     8     6    1.6107E+02 -1.5556E+00   1.6263E+02  0.000E+00  0.000E+00  0.000E+00  9.94773E+02  2.898E+00  4.203E+01  2.570E+00 -2.018E-01
   1    6    8     9     1    0.0000E+00  0.0000E+00   0.0000E+00  0.000E+00  0.000E+00  0.000E+00  1.07850E+03  0.000E+00  4.000E+00  0.000E+00  1.000E+00



 UBDSV3 SAVING "     NETRECHARGE" ON UNIT 100 AT TIME STEP    15, STRESS PERIOD  11
 UBDSV3 SAVING "    NETDISCHARGE" ON UNIT 101 AT TIME STEP    15, STRESS PERIOD  11
 UBDSV3 SAVING "           GW ET" ON UNIT  61 AT TIME STEP    15, STRESS PERIOD  11
 UBDSV3 SAVING "    UZF RECHARGE" ON UNIT  61 AT TIME STEP    15, STRESS PERIOD  11
 UBDSV3 SAVING " SURFACE LEAKAGE" ON UNIT  61 AT TIME STEP    15, STRESS PERIOD  11
 UBDSV3 SAVING "       HORT+DUNN" ON UNIT  61 AT TIME STEP    15, STRESS PERIOD  11
 UBDSV3 SAVING "  STORAGE CHANGE" ON UNIT  61 AT TIME STEP    15, STRESS PERIOD  11


UNSATURATED ZONE PACKAGE VOLUMETRIC BUDGET FOR  TIME STEP    15 STRESS PERIOD   11
  ------------------------------------------------------------------------------



     CUMULATIVE VOLUMES      L**3       RATES FOR THIS TIME STEP      L**3/T
     ------------------                 ------------------------

           IN:                                      IN:
           ---                                      ---
        INFILTRATION =    53432478.1201          INFILTRATION =           0.8475

          OUT:                                     OUT:
          ----                                     ----
              UZF ET =   563761701.9633                UZF ET =           0.0779
        UZF RECHARGE =   688843061.8091          UZF RECHARGE =          26.0138

            IN - OUT = -1199172285.6522              IN - OUT =         -25.2442

          STORAGE:                                 STORAGE:
          --------                                 --------
      STORAGE CHANGE = -1199164498.0325        STORAGE CHANGE =         -25.2442

 PERCENT DISCREPANCY IS DIFFERENCE BETWEEN IN-OUT MINUS CHANGE IN STORAGE
 DIVIDED BY THE AVERAGE OF IN AND OUT TIMES 100

 PERCENT DISCREPANCY =          -0.00     PERCENT DISCREPANCY =           0.00






1
              HEAD IN LAYER   1 AT END OF TIME STEP    15 IN STRESS PERIOD   11
  -----------------------------------------------------------------------------

           1       2       3       4       5       6       7       8       9      10
 ...................................................................................
   1  1012.41 1012.23 6999.00 6999.00 6999.00 6999.00 6999.00 6999.00 6999.00 6999.00
   2  1014.06 1012.17 1012.17 6999.00 6999.00 1014.69 1014.84 1014.77 6999.00 6999.00
   3  6999.00 1012.70 1012.30 1012.44 1013.49 1014.36 1014.88 1014.78 6999.00 6999.00
   4  1014.01 1013.24 1012.57 1012.39 1012.63 1012.74 1013.37 1014.52 1014.32 6999.00
   5  1013.97 1013.25 1012.58 1012.21 1012.28 1012.44 1012.50 1012.84 1013.31 1013.67
   6  1013.87 1013.12 1012.42 1011.99 1012.02 1012.19 1012.24 1012.53 1013.31 1014.59
   7  1013.75 1012.87 1012.17 1011.72 1011.76 1011.94 1012.00 1012.24 1013.44 6999.00
   8  6999.00 1012.42 1011.82 1011.40 1011.46 1011.66 1011.76 1012.45 1013.68 6999.00
   9  6999.00 1011.70 1011.26 1010.96 1011.07 1011.36 1011.55 1012.47 1013.80 6999.00
  10  6999.00 1010.59 1010.41 1010.37 1010.62 1011.01 1011.47 1012.49 1013.93 1014.79
  11  6999.00 1008.61 1008.86 1009.55 1010.10 1010.72 1011.41 1012.60 1014.20 6999.00
  12  1000.98 1004.61 1006.74 1008.38 1009.51 1010.51 1011.44 1012.94 1015.04 6999.00
  13   995.38 1000.03 1004.76 1007.53 1009.15 1010.47 1011.80 1013.41 1015.92 6999.00
  14  6999.00 1005.12 1006.55 1008.56 1010.11 1011.46 1013.03 1015.39 1018.00 6999.00
  15  6999.00 6999.00 1009.26 1010.24 1011.30 1012.09 6999.00 6999.00 6999.00 6999.00

 HEAD WILL BE SAVED ON UNIT   62 AT END OF TIME STEP   15, STRESS PERIOD   11
1
  VOLUMETRIC BUDGET FOR ENTIRE MODEL AT END OF TIME STEP   15, STRESS PERIOD  11
  ------------------------------------------------------------------------------

     CUMULATIVE VOLUMES      L**3       RATES FOR THIS TIME STEP      L**3/T
     ------------------                 ------------------------

           IN:                                      IN:
           ---                                      ---
             STORAGE =    16149497.0000               STORAGE =           0.0000
       CONSTANT HEAD =           0.0000         CONSTANT HEAD =           0.0000
               WELLS =           0.0000                 WELLS =           0.0000
     HEAD DEP BOUNDS =    28981682.0000       HEAD DEP BOUNDS =           1.0258
      STREAM LEAKAGE =   109142744.0000        STREAM LEAKAGE =           3.5593
        UZF RECHARGE =   688843264.0000          UZF RECHARGE =          26.0138
               GW ET =           0.0000                 GW ET =           0.0000
     SURFACE LEAKAGE =           0.0000       SURFACE LEAKAGE =           0.0000

            TOTAL IN =   843117184.0000              TOTAL IN =          30.5989

          OUT:                                     OUT:
          ----                                     ----
             STORAGE =   737707200.0000               STORAGE =          27.5542
       CONSTANT HEAD =           0.0000         CONSTANT HEAD =           0.0000
               WELLS =     1059111.1250                 WELLS =           0.0000
     HEAD DEP BOUNDS =     7825209.0000       HEAD DEP BOUNDS =           0.2804
      STREAM LEAKAGE =    59151604.0000        STREAM LEAKAGE =           2.6856
        UZF RECHARGE =           0.0000          UZF RECHARGE =           0.0000
               GW ET =    37311756.0000                 GW ET =       7.4631E-02
     SURFACE LEAKAGE =           0.0000       SURFACE LEAKAGE =           0.0000

           TOTAL OUT =   843054912.0000             TOTAL OUT =          30.5948

            IN - OUT =       62272.0000              IN - OUT =       4.1065E-03

 PERCENT DISCREPANCY =           0.01     PERCENT DISCREPANCY =           0.01






         TIME SUMMARY AT END OF TIME STEP   15 IN STRESS PERIOD   11
                    SECONDS     MINUTES      HOURS       DAYS        YEARS
                    -----------------------------------------------------------
   TIME STEP LENGTH  87600.      1460.0      24.333      1.0139     2.77588E-03
 STRESS PERIOD TIME 1.31400E+06  21900.      365.00      15.208     4.16381E-02
         TOTAL TIME 2.75940E+07 4.59900E+05  7665.0      319.38     0.87440    
1
 
 SOLVING FOR HEAD 
                                                   Max.-Head-Change                         Max.-Flux-Residual
  Residual-Control   Outer-Iter.   Inner-Iter.     Column Row Layer    Maximum-Head-Change  Column Row Layer    Maximum-Flux-Residual          L2-NORM 
          0                 1           2             3   13     1       0.1198740344E-01       3   13    1         0.6363815077E+00      0.1901548014E+01
          0                 2           2             8    2     1       0.2622615906E-02       8    2    1         0.6809290586E-01      0.4442604191E+00
          0                 3           2             8    2     1       0.1179098255E-02       8    2    1         0.3061387992E-01      0.1608316890E+00
          0                 4           2             8    2     1       0.5301073931E-03       8    2    1         0.1376364396E-01      0.6927253514E-01
          0                 5           2             8    2     1       0.2383286637E-03       8    2    1         0.6187953427E-02      0.3083937261E-01
          0                 6           1             8    2     1       0.1071487829E-03       8    2    1         0.2782013238E-02      0.1380083105E-01
          0                 7           1             8    2     1       0.4817222957E-04       8    2    1         0.1250748220E-02      0.6181089138E-02
          0                 8           1             8    2     1       0.2165732383E-04       8    2    1         0.5623143097E-03      0.2768841830E-02
          0                 9           1             8    2     1       0.9736690483E-05       8    2    1         0.2528057286E-03      0.1240397562E-02

    ------------------------------------------------
       NWT REQUIRED            9 OUTER ITERATIONS 
       AND A TOTAL OF         14 INNER ITERATIONS.
    ------------------------------------------------

 NO OUTPUT CONTROL FOR STRESS PERIOD   11   TIME STEP   16
 
 SOLVING FOR HEAD 
                                                   Max.-Head-Change                         Max.-Flux-Residual
  Residual-Control   Outer-Iter.   Inner-Iter.     Column Row Layer    Maximum-Head-Change  Column Row Layer    Maximum-Flux-Residual          L2-NORM 
          0                 1           2             3   13     1       0.1175820065E-01       3   13    1         0.6241316188E+00      0.1895223471E+01
          0                 2           2             8    2     1       0.2622131406E-02       8    2    1         0.6808049535E-01      0.4438833137E+00
          0                 3           2             8    2     1       0.1178876869E-02       8    2    1         0.3060820744E-01      0.1607508577E+00
          0                 4           2             8    2     1       0.5300062689E-03       8    2    1         0.1376105217E-01      0.6923653937E-01
          0                 5           2             8    2     1       0.2382824882E-03       8    2    1         0.6186769631E-02      0.3082310052E-01
          0                 6           1             8    2     1       0.1071277050E-03       8    2    1         0.2781472722E-02      0.1379350767E-01
          0                 7           1             8    2     1       0.4816261092E-04       8    2    1         0.1250501500E-02      0.6177795740E-02
          0                 8           1             8    2     1       0.2165293601E-04       8    2    1         0.5622017289E-03      0.2767361078E-02
          0                 9           1             8    2     1       0.9734688969E-05       8    2    1         0.2527543708E-03      0.1239731996E-02

    ------------------------------------------------
       NWT REQUIRED            9 OUTER ITERATIONS 
       AND A TOTAL OF         14 INNER ITERATIONS.
    ------------------------------------------------

 NO OUTPUT CONTROL FOR STRESS PERIOD   11   TIME STEP   17
 
 SOLVING FOR HEAD 
                                                   Max.-Head-Change                         Max.-Flux-Residual
  Residual-Control   Outer-Iter.   Inner-Iter.     Column Row Layer    Maximum-Head-Change  Column Row Layer    Maximum-Flux-Residual          L2-NORM 
          0                 1           2             3   13     1       0.1153567847E-01       3   13    1         0.6122378582E+00      0.1888741189E+01
          0                 2           2             8    2     1       0.2621654707E-02       8    2    1         0.6806828736E-01      0.4434655432E+00
          0                 3           2             8    2     1       0.1178658992E-02       8    2    1         0.3060262603E-01      0.1606673200E+00
          0                 4           2             8    2     1       0.5299067225E-03       8    2    1         0.1375850132E-01      0.6920040924E-01
          0                 5           2             8    2     1       0.2382370219E-03       8    2    1         0.6185604245E-02      0.3080680125E-01
          0                 6           1             8    2     1       0.1071069458E-03       8    2    1         0.2780940483E-02      0.1378617119E-01
          0                 7           1             8    2     1       0.4815313597E-04       8    2    1         0.1250258504E-02      0.6174496088E-02
          0                 8           1             8    2     1       0.2164861209E-04       8    2    1         0.5620908202E-03      0.2765877369E-02
          0                 9           1             8    2     1       0.9732717094E-05       8    2    1         0.2527037702E-03      0.1239064717E-02

    ------------------------------------------------
       NWT REQUIRED            9 OUTER ITERATIONS 
       AND A TOTAL OF         14 INNER ITERATIONS.
    ------------------------------------------------

 NO OUTPUT CONTROL FOR STRESS PERIOD   11   TIME STEP   18
 
 SOLVING FOR HEAD 
                                                   Max.-Head-Change                         Max.-Flux-Residual
  Residual-Control   Outer-Iter.   Inner-Iter.     Column Row Layer    Maximum-Head-Change  Column Row Layer    Maximum-Flux-Residual          L2-NORM 
          0                 1           2             3   13     1       0.1131953282E-01       3   13    1         0.6006852404E+00      0.1883226244E+01
          0                 2           2             8    2     1       0.2621146831E-02       8    2    1         0.6805526847E-01      0.4431183513E+00
          0                 3           2             8    2     1       0.1178427127E-02       8    2    1         0.3059668081E-01      0.1605897972E+00
          0                 4           2             8    2     1       0.5298009009E-03       8    2    1         0.1375578726E-01      0.6916477775E-01
          0                 5           2             8    2     1       0.2381887409E-03       8    2    1         0.6184365641E-02      0.3079057661E-01
          0                 6           1             8    2     1       0.1070849239E-03       8    2    1         0.2780375398E-02      0.1377885860E-01
          0                 7           1             8    2     1       0.4814309438E-04       8    2    1         0.1250000776E-02      0.6171208359E-02
          0                 8           1             8    2     1       0.2164403481E-04       8    2    1         0.5619733063E-03      0.2764402675E-02
          0                 9           1             8    2     1       0.9730630667E-05       8    2    1         0.2526502000E-03      0.1238399605E-02

    ------------------------------------------------
       NWT REQUIRED            9 OUTER ITERATIONS 
       AND A TOTAL OF         14 INNER ITERATIONS.
    ------------------------------------------------

 NO OUTPUT CONTROL FOR STRESS PERIOD   11   TIME STEP   19
 
 SOLVING FOR HEAD 
                                                   Max.-Head-Change                         Max.-Flux-Residual
  Residual-Control   Outer-Iter.   Inner-Iter.     Column Row Layer    Maximum-Head-Change  Column Row Layer    Maximum-Flux-Residual          L2-NORM 
          0                 1           2             3   13     1       0.1110934163E-01       3   13    1         0.5894588382E+00      0.1878002294E+01
          0                 2           2             8    2     1       0.2620646946E-02       8    2    1         0.6804245659E-01      0.4428091492E+00
          0                 3           2             8    2     1       0.1178198866E-02       8    2    1         0.3059082894E-01      0.1605130630E+00
          0                 4           2             8    2     1       0.5296967046E-03       8    2    1         0.1375311530E-01      0.6912903170E-01
          0                 5           2             8    2     1       0.2381411921E-03       8    2    1         0.6183146014E-02      0.3077429288E-01
          0                 6           1             8    2     1       0.1070632324E-03       8    2    1         0.2779818870E-02      0.1377151836E-01
          0                 7           1             8    2     1       0.4813320162E-04       8    2    1         0.1249746902E-02      0.6167904202E-02
          0                 8           1             8    2     1       0.2163952443E-04       8    2    1         0.5618575299E-03      0.2762912949E-02
          0                 9           1             8    2     1       0.9728575130E-05       8    2    1         0.2525974153E-03      0.1237731906E-02

    ------------------------------------------------
       NWT REQUIRED            9 OUTER ITERATIONS 
       AND A TOTAL OF         14 INNER ITERATIONS.
    ------------------------------------------------

 NO OUTPUT CONTROL FOR STRESS PERIOD   11   TIME STEP   20
 
 SOLVING FOR HEAD 
                                                   Max.-Head-Change                         Max.-Flux-Residual
  Residual-Control   Outer-Iter.   Inner-Iter.     Column Row Layer    Maximum-Head-Change  Column Row Layer    Maximum-Flux-Residual          L2-NORM 
          0                 1           2             3   13     1       0.1090525232E-01       3   13    1         0.5785471801E+00      0.1873237169E+01
          0                 2           2             8    2     1       0.2620116202E-02       8    2    1         0.6802884040E-01      0.4425179567E+00
          0                 3           2             8    2     1       0.1177956794E-02       8    2    1         0.3058461714E-01      0.1604372119E+00
          0                 4           2             8    2     1       0.5295863280E-03       8    2    1         0.1375028227E-01      0.6909355719E-01
          0                 5           2             8    2     1       0.2380908779E-03       8    2    1         0.6181854311E-02      0.3075812666E-01
          0                 6           1             8    2     1       0.1070403033E-03       8    2    1         0.2779230090E-02      0.1376423161E-01
          0                 7           1             8    2     1       0.4812275485E-04       8    2    1         0.1249478597E-02      0.6164626217E-02
          0                 8           1             8    2     1       0.2163476619E-04       8    2    1         0.5617353008E-03      0.2761439011E-02
          0                 9           1             8    2     1       0.9726408168E-05       8    2    1         0.2525417476E-03      0.1237069197E-02

    ------------------------------------------------
       NWT REQUIRED            9 OUTER ITERATIONS 
       AND A TOTAL OF         14 INNER ITERATIONS.
    ------------------------------------------------

 NO OUTPUT CONTROL FOR STRESS PERIOD   11   TIME STEP   21
 
 SOLVING FOR HEAD 
                                                   Max.-Head-Change                         Max.-Flux-Residual
  Residual-Control   Outer-Iter.   Inner-Iter.     Column Row Layer    Maximum-Head-Change  Column Row Layer    Maximum-Flux-Residual          L2-NORM 
          0                 1           2             3   13     1       0.1070712521E-01       3   13    1         0.5679537302E+00      0.1868786444E+01
          0                 2           2             8    2     1       0.2619574273E-02       8    2    1         0.6801493258E-01      0.4422391191E+00
          0                 3           2             8    2     1       0.1177709721E-02       8    2    1         0.3057827493E-01      0.1603611750E+00
          0                 4           2             8    2     1       0.5294737144E-03       8    2    1         0.1374739091E-01      0.6905788587E-01
          0                 5           2             8    2     1       0.2380395635E-03       8    2    1         0.6180536523E-02      0.3074187256E-01
          0                 6           1             8    2     1       0.1070169267E-03       8    2    1         0.2778629638E-02      0.1375690543E-01
          0                 7           1             8    2     1       0.4811210838E-04       8    2    1         0.1249205070E-02      0.6161330485E-02
          0                 8           1             8    2     1       0.2162991854E-04       8    2    1         0.5616107255E-03      0.2759956899E-02
          0                 9           1             8    2     1       0.9724201313E-05       8    2    1         0.2524850209E-03      0.1236402810E-02

    ------------------------------------------------
       NWT REQUIRED            9 OUTER ITERATIONS 
       AND A TOTAL OF         14 INNER ITERATIONS.
    ------------------------------------------------

 NO OUTPUT CONTROL FOR STRESS PERIOD   11   TIME STEP   22
 
 SOLVING FOR HEAD 
                                                   Max.-Head-Change                         Max.-Flux-Residual
  Residual-Control   Outer-Iter.   Inner-Iter.     Column Row Layer    Maximum-Head-Change  Column Row Layer    Maximum-Flux-Residual          L2-NORM 
          0                 1           2             3   13     1       0.1051466911E-01       3   13    1         0.5576630323E+00      0.1864617818E+01
          0                 2           2             8    2     1       0.2619040806E-02       8    2    1         0.6800124348E-01      0.4419674136E+00
          0                 3           2             8    2     1       0.1177466474E-02       8    2    1         0.3057203158E-01      0.1602848247E+00
          0                 4           2             8    2     1       0.5293628306E-03       8    2    1         0.1374454424E-01      0.6902224010E-01
          0                 5           2             8    2     1       0.2379890306E-03       8    2    1         0.6179238936E-02      0.3072565738E-01
          0                 6           1             8    2     1       0.1069939036E-03       8    2    1         0.2778038324E-02      0.1374959946E-01
          0                 7           1             8    2     1       0.4810162147E-04       8    2    1         0.1248935675E-02      0.6158044188E-02
          0                 8           1             8    2     1       0.2162514280E-04       8    2    1         0.5614880250E-03      0.2758479177E-02
          0                 9           1             8    2     1       0.9722026973E-05       8    2    1         0.2524291518E-03      0.1235738375E-02

    ------------------------------------------------
       NWT REQUIRED            9 OUTER ITERATIONS 
       AND A TOTAL OF         14 INNER ITERATIONS.
    ------------------------------------------------

 NO OUTPUT CONTROL FOR STRESS PERIOD   11   TIME STEP   23
 
 SOLVING FOR HEAD 
                                                   Max.-Head-Change                         Max.-Flux-Residual
  Residual-Control   Outer-Iter.   Inner-Iter.     Column Row Layer    Maximum-Head-Change  Column Row Layer    Maximum-Flux-Residual          L2-NORM 
          0                 1           2             3   13     1       0.1032790220E-01       3   13    1         0.5476762602E+00      0.1860631940E+01
          0                 2           2             8    2     1       0.2618476738E-02       8    2    1         0.6798675899E-01      0.4416998759E+00
          0                 3           2             8    2     1       0.1177209486E-02       8    2    1         0.3056543110E-01      0.1602081215E+00
          0                 4           2             8    2     1       0.5292457774E-03       8    2    1         0.1374153723E-01      0.6898644316E-01
          0                 5           2             8    2     1       0.2379357278E-03       8    2    1         0.6177869356E-02      0.3070937284E-01
          0                 6           1             8    2     1       0.1069696368E-03       8    2    1         0.2777414684E-02      0.1374226133E-01
          0                 7           1             8    2     1       0.4809057632E-04       8    2    1         0.1248651766E-02      0.6154743191E-02
          0                 8           1             8    2     1       0.2162011644E-04       8    2    1         0.5613588042E-03      0.2756995149E-02
          0                 9           1             8    2     1       0.9719740207E-05       8    2    1         0.2523703530E-03      0.1235071647E-02

    ------------------------------------------------
       NWT REQUIRED            9 OUTER ITERATIONS 
       AND A TOTAL OF         14 INNER ITERATIONS.
    ------------------------------------------------

 NO OUTPUT CONTROL FOR STRESS PERIOD   11   TIME STEP   24
 
 SOLVING FOR HEAD 
                                                   Max.-Head-Change                         Max.-Flux-Residual
  Residual-Control   Outer-Iter.   Inner-Iter.     Column Row Layer    Maximum-Head-Change  Column Row Layer    Maximum-Flux-Residual          L2-NORM 
          0                 1           2             3   13     1       0.1014663929E-01       3   13    1         0.5379835698E+00      0.1856994629E+01
          0                 2           2             8    2     1       0.2617901853E-02       8    2    1         0.6797199145E-01      0.4414554379E+00
          0                 3           2             8    2     1       0.1176947683E-02       8    2    1         0.3055870459E-01      0.1601329215E+00
          0                 4           2             8    2     1       0.5291265793E-03       8    2    1         0.1373847409E-01      0.6895085245E-01
          0                 5           2             8    2     1       0.2378814704E-03       8    2    1         0.6176474791E-02      0.3069315410E-01
          0                 6           1             8    2     1       0.1069449449E-03       8    2    1         0.2776779919E-02      0.1373495195E-01
          0                 7           1             8    2     1       0.4807934183E-04       8    2    1         0.1248362906E-02      0.6151455279E-02
          0                 8           1             8    2     1       0.2161500605E-04       8    2    1         0.5612273832E-03      0.2755516383E-02
          0                 9           1             8    2     1       0.9717416176E-05       8    2    1         0.2523105721E-03      0.1234406387E-02

    ------------------------------------------------
       NWT REQUIRED            9 OUTER ITERATIONS 
       AND A TOTAL OF         14 INNER ITERATIONS.
    ------------------------------------------------

 NO OUTPUT CONTROL FOR STRESS PERIOD   11   TIME STEP   25
 
 SOLVING FOR HEAD 
                                                   Max.-Head-Change                         Max.-Flux-Residual
  Residual-Control   Outer-Iter.   Inner-Iter.     Column Row Layer    Maximum-Head-Change  Column Row Layer    Maximum-Flux-Residual          L2-NORM 
          0                 1           2             3   13     1       0.9970392135E-02       3   13    1         0.5285669413E+00      0.1853422295E+01
          0                 2           2             8    2     1       0.2617316257E-02       8    2    1         0.6795694455E-01      0.4411812955E+00
          0                 3           2             8    2     1       0.1176681090E-02       8    2    1         0.3055185318E-01      0.1600559186E+00
          0                 4           2             8    2     1       0.5290052409E-03       8    2    1         0.1373535512E-01      0.6891521668E-01
          0                 5           2             8    2     1       0.2378262554E-03       8    2    1         0.6175055256E-02      0.3067697011E-01
          0                 6           1             8    2     1       0.1069198252E-03       8    2    1         0.2776133995E-02      0.1372766114E-01
          0                 7           1             8    2     1       0.4806791588E-04       8    2    1         0.1248069054E-02      0.6148175636E-02
          0                 8           1             8    2     1       0.2160981011E-04       8    2    1         0.5610937313E-03      0.2754041583E-02
          0                 9           1             8    2     1       0.9715053752E-05       8    2    1         0.2522497951E-03      0.1233743447E-02

    ------------------------------------------------
       NWT REQUIRED            9 OUTER ITERATIONS 
       AND A TOTAL OF         14 INNER ITERATIONS.
    ------------------------------------------------

 NO OUTPUT CONTROL FOR STRESS PERIOD   11   TIME STEP   26
 
 SOLVING FOR HEAD 
                                                   Max.-Head-Change                         Max.-Flux-Residual
  Residual-Control   Outer-Iter.   Inner-Iter.     Column Row Layer    Maximum-Head-Change  Column Row Layer    Maximum-Flux-Residual          L2-NORM 
          0                 1           2             3   13     1       0.9799097418E-02       3   13    1         0.5194091206E+00      0.1850148894E+01
          0                 2           2             8    2     1       0.2616720105E-02       8    2    1         0.6794162181E-01      0.4409473350E+00
          0                 3           2             8    2     1       0.1176409788E-02       8    2    1         0.3054487870E-01      0.1599801453E+00
          0                 4           2             8    2     1       0.5288818018E-03       8    2    1         0.1373218125E-01      0.6887943763E-01
          0                 5           2             8    2     1       0.2377701042E-03       8    2    1         0.6173611236E-02      0.3066068387E-01
          0                 6           1             8    2     1       0.1068942873E-03       8    2    1         0.2775477140E-02      0.1372032315E-01
          0                 7           1             8    2     1       0.4805630385E-04       8    2    1         0.1247770330E-02      0.6144875334E-02
          0                 8           1             8    2     1       0.2160453102E-04       8    2    1         0.5609579006E-03      0.2752557720E-02
          0                 9           1             8    2     1       0.9712654061E-05       8    2    1         0.2521880429E-03      0.1233076123E-02

    ------------------------------------------------
       NWT REQUIRED            9 OUTER ITERATIONS 
       AND A TOTAL OF         14 INNER ITERATIONS.
    ------------------------------------------------

 NO OUTPUT CONTROL FOR STRESS PERIOD   11   TIME STEP   27
 
 SOLVING FOR HEAD 
                                                   Max.-Head-Change                         Max.-Flux-Residual
  Residual-Control   Outer-Iter.   Inner-Iter.     Column Row Layer    Maximum-Head-Change  Column Row Layer    Maximum-Flux-Residual          L2-NORM 
          0                 1           2             3   13     1       0.9632743184E-02       3   13    1         0.5105126629E+00      0.1847127841E+01
          0                 2           2             8    2     1       0.2616132866E-02       8    2    1         0.6792653169E-01      0.4407207320E+00
          0                 3           2             8    2     1       0.1176142469E-02       8    2    1         0.3053800816E-01      0.1599041993E+00
          0                 4           2             8    2     1       0.5287601417E-03       8    2    1         0.1372905381E-01      0.6884366298E-01
          0                 5           2             8    2     1       0.2377147475E-03       8    2    1         0.6172187966E-02      0.3064441816E-01
          0                 6           1             8    2     1       0.1068691052E-03       8    2    1         0.2774829568E-02      0.1371299597E-01
          0                 7           1             8    2     1       0.4804485027E-04       8    2    1         0.1247475751E-02      0.6141581761E-02
          0                 8           1             8    2     1       0.2159932308E-04       8    2    1         0.5608239292E-03      0.2751080862E-02
          0                 9           1             8    2     1       0.9710286260E-05       8    2    1         0.2521271248E-03      0.1232409785E-02

    ------------------------------------------------
       NWT REQUIRED            9 OUTER ITERATIONS 
       AND A TOTAL OF         14 INNER ITERATIONS.
    ------------------------------------------------

 NO OUTPUT CONTROL FOR STRESS PERIOD   11   TIME STEP   28
 
 SOLVING FOR HEAD 
                                                   Max.-Head-Change                         Max.-Flux-Residual
  Residual-Control   Outer-Iter.   Inner-Iter.     Column Row Layer    Maximum-Head-Change  Column Row Layer    Maximum-Flux-Residual          L2-NORM 
          0                 1           2             3   13     1       0.9471242183E-02       3   13    1         0.5018769453E+00      0.1843473907E+01
          0                 2           2             8    2     1       0.2615515791E-02       8    2    1         0.6791066227E-01      0.4403909799E+00
          0                 3           2             8    2     1       0.1175861833E-02       8    2    1         0.3053078981E-01      0.1598196870E+00
          0                 4           2             8    2     1       0.5286325386E-03       8    2    1         0.1372577114E-01      0.6880714381E-01
          0                 5           2             8    2     1       0.2376567384E-03       8    2    1         0.6170695406E-02      0.3062800263E-01
          0                 6           1             8    2     1       0.1068427385E-03       8    2    1         0.2774151061E-02      0.1370561197E-01
          0                 7           1             8    2     1       0.4803286845E-04       8    2    1         0.1247167366E-02      0.6138259408E-02
          0                 8           1             8    2     1       0.2159387892E-04       8    2    1         0.5606837896E-03      0.2749583137E-02
          0                 9           1             8    2     1       0.9707813037E-05       8    2    1         0.2520634525E-03      0.1231739043E-02

    ------------------------------------------------
       NWT REQUIRED            9 OUTER ITERATIONS 
       AND A TOTAL OF         14 INNER ITERATIONS.
    ------------------------------------------------

 NO OUTPUT CONTROL FOR STRESS PERIOD   11   TIME STEP   29
 
 SOLVING FOR HEAD 
                                                   Max.-Head-Change                         Max.-Flux-Residual
  Residual-Control   Outer-Iter.   Inner-Iter.     Column Row Layer    Maximum-Head-Change  Column Row Layer    Maximum-Flux-Residual          L2-NORM 
          0                 1           2             3   13     1       0.9314348076E-02       3   13    1         0.4934917814E+00      0.1840598059E+01
          0                 2           2             8    2     1       0.2614888419E-02       8    2    1         0.6789452590E-01      0.4401624469E+00
          0                 3           2             8    2     1       0.1175576560E-02       8    2    1         0.3052345121E-01      0.1597427429E+00
          0                 4           2             8    2     1       0.5285028471E-03       8    2    1         0.1372243432E-01      0.6877115653E-01
          0                 5           2             8    2     1       0.2375977889E-03       8    2    1         0.6169178469E-02      0.3061166361E-01
          0                 6           1             8    2     1       0.1068159494E-03       8    2    1         0.2773461586E-02      0.1369825366E-01
          0                 7           1             8    2     1       0.4802069604E-04       8    2    1         0.1246854040E-02      0.6134950151E-02
          0                 8           1             8    2     1       0.2158834896E-04       8    2    1         0.5605414292E-03      0.2748095214E-02
          0                 9           1             8    2     1       0.9705301672E-05       8    2    1         0.2519987848E-03      0.1231070061E-02

    ------------------------------------------------
       NWT REQUIRED            9 OUTER ITERATIONS 
       AND A TOTAL OF         14 INNER ITERATIONS.
    ------------------------------------------------

 NO OUTPUT CONTROL FOR STRESS PERIOD   11   TIME STEP   30



 STREAM LISTING     PERIOD     11   STEP       30

 LAYER ROW COL. STREAM  RCH.  FLOW INTO     FLOW TO   FLOW OUT OF   OVRLND.     DIRECT     STREAM       STREAM     STREAM     STREAM   STREAMBED  STREAMBED
                SEG.NO.  NO.  STRM. RCH.    AQUIFER    STRM. RCH.    RUNOFF     PRECIP       ET          HEAD       DEPTH      WIDTH   CONDCTNC.   GRADIENT

   1    1    1     1     1    3.4817E+00  8.3080E-10   3.4817E+00  0.000E+00  0.000E+00  0.000E+00  1.09371E+03  6.642E-01  5.039E+00  2.267E-10  1.221E+00
   1    2    2     1     2    3.4817E+00  1.2889E-09   3.4817E+00  0.000E+00  0.000E+00  0.000E+00  1.08872E+03  6.627E-01  5.027E+00  3.519E-10  1.221E+00
   1    3    3     1     3    3.4817E+00  1.1060E-09   3.4817E+00  0.000E+00  0.000E+00  0.000E+00  1.08308E+03  6.633E-01  5.032E+00  3.019E-10  1.221E+00
   1    3    4     1     4    3.4817E+00  1.0235E-09   3.4817E+00  0.000E+00  0.000E+00  0.000E+00  1.07807E+03  6.636E-01  5.034E+00  2.794E-10  1.221E+00
   1    4    5     2     1    1.4817E+00  2.5039E-01   1.2313E+00  0.000E+00  0.000E+00  0.000E+00  1.07214E+03  2.102E-01  1.200E+01  7.800E-02  1.070E+00
   1    5    6     2     2    1.2313E+00  1.9134E-01   1.0400E+00  0.000E+00  0.000E+00  0.000E+00  1.06670E+03  1.889E-01  1.200E+01  6.000E-02  1.063E+00
   1    6    6     2     3    1.0400E+00  1.9015E-01   8.4985E-01  0.000E+00  0.000E+00  0.000E+00  1.06196E+03  1.692E-01  1.200E+01  6.000E-02  1.056E+00
   1    7    6     2     4    8.4985E-01  1.8888E-01   6.6098E-01  0.000E+00  0.000E+00  0.000E+00  1.05722E+03  1.479E-01  1.200E+01  6.000E-02  1.049E+00
   1    8    6     2     5    6.6098E-01  1.8747E-01   4.7350E-01  0.000E+00  0.000E+00  0.000E+00  1.05248E+03  1.246E-01  1.200E+01  6.000E-02  1.042E+00
   1    3    5     3     1    2.0000E+00  2.8252E-01   1.7175E+00  0.000E+00  0.000E+00  0.000E+00  1.07555E+03  1.909E+00  9.636E+00  7.227E-02  1.955E+00
   1    3    6     3     2    1.7175E+00  2.4905E-01   1.4684E+00  0.000E+00  0.000E+00  0.000E+00  1.07264E+03  1.727E+00  8.909E+00  6.682E-02  1.864E+00
   1    3    7     3     3    1.4684E+00  1.9718E-01   1.2712E+00  0.000E+00  0.000E+00  0.000E+00  1.06987E+03  1.555E+00  8.218E+00  5.547E-02  1.777E+00
   1    4    8     3     4    1.2712E+00  2.2567E-01   1.0456E+00  0.000E+00  0.000E+00  0.000E+00  1.06682E+03  1.364E+00  7.455E+00  6.709E-02  1.682E+00
   1    5    8     3     5    1.0456E+00  1.5790E-01   8.8768E-01  0.000E+00  0.000E+00  0.000E+00  1.06362E+03  1.164E+00  6.655E+00  4.991E-02  1.582E+00
   1    6    8     3     6    8.8768E-01  5.5980E-02   8.3170E-01  0.000E+00  0.000E+00  0.000E+00  1.06158E+03  1.036E+00  6.145E+00  1.844E-02  1.518E+00
   1    5   10     4     1    1.0000E+01  9.0919E-02   9.9091E+00  0.000E+00  0.000E+00  0.000E+00  1.07836E+03  6.368E-01  1.000E+01  2.500E-02  1.212E+00
   1    5    9     4     2    9.9091E+00  1.8158E-01   9.7275E+00  0.000E+00  0.000E+00  0.000E+00  1.07154E+03  6.315E-01  1.000E+01  5.000E-02  1.211E+00
   1    6    8     4     3    9.7275E+00  1.2689E-01   9.6006E+00  0.000E+00  0.000E+00  0.000E+00  1.06381E+03  6.256E-01  1.000E+01  3.500E-02  1.209E+00
   1    6    8     5     1    1.0432E+01  2.2686E-09   1.0432E+01  0.000E+00  0.000E+00  0.000E+00  1.05868E+03  6.790E-01  1.542E+01  6.166E-10  1.226E+00
   1    7    7     5     2    1.0432E+01  2.8306E-09   1.0432E+01  0.000E+00  0.000E+00  0.000E+00  1.05418E+03  6.784E-01  1.539E+01  7.695E-10  1.226E+00
   1    8    7     5     3    1.0432E+01  1.9868E-09   1.0432E+01  0.000E+00  0.000E+00  0.000E+00  1.04993E+03  6.794E-01  1.543E+01  5.400E-10  1.226E+00
   1    8    6     5     4    1.0432E+01  1.4217E-09   1.0432E+01  0.000E+00  0.000E+00  0.000E+00  1.04693E+03  6.800E-01  1.545E+01  3.863E-10  1.227E+00
   1    9    6     6     1    1.0906E+01  2.2426E-01   1.0682E+01  0.000E+00  0.000E+00  0.000E+00  1.04346E+03  7.377E-01  1.200E+01  6.000E-02  1.246E+00
   1   10    7     6     2    1.0682E+01  2.2371E-01   1.0458E+01  0.000E+00  0.000E+00  0.000E+00  1.03891E+03  7.285E-01  1.200E+01  6.000E-02  1.243E+00
   1   11    7     6     3    1.0458E+01  2.2315E-01   1.0235E+01  0.000E+00  0.000E+00  0.000E+00  1.03436E+03  7.192E-01  1.200E+01  6.000E-02  1.240E+00
   1   12    7     6     4    1.0235E+01  2.2259E-01   1.0012E+01  0.000E+00  0.000E+00  0.000E+00  1.02980E+03  7.098E-01  1.200E+01  6.000E-02  1.237E+00
   1   13    7     6     5    1.0012E+01  8.8879E-02   9.9232E+00  0.000E+00  0.000E+00  0.000E+00  1.02661E+03  7.033E-01  1.200E+01  2.400E-02  1.234E+00
   1   14    9     7     1    1.5000E+02  2.9539E-08   1.5000E+02  0.000E+00  0.000E+00  0.000E+00  1.03986E+03  2.283E+00  5.528E+01  5.591E-09  1.761E+00
   1   13    8     7     2    1.5000E+02  3.2486E-14   1.5000E+02  0.000E+00  0.000E+00  0.000E+00  1.03478E+03  2.283E+00  5.527E+01  6.150E-15  1.761E+00
   1   13    7     7     3    1.5000E+02  2.9539E-08   1.5000E+02  0.000E+00  0.000E+00  0.000E+00  1.02970E+03  2.283E+00  5.528E+01  5.591E-09  1.761E+00
   1   13    6     8     1    1.5992E+02  2.4982E-08   1.5992E+02  0.000E+00  0.000E+00  0.000E+00  1.02475E+03  2.877E+00  4.171E+01  4.251E-09  1.959E+00
   1   13    5     8     2    1.5992E+02  2.4982E-09   1.5992E+02  0.000E+00  0.000E+00  0.000E+00  1.01850E+03  2.877E+00  4.171E+01  4.251E-10  1.959E+00
   1   13    4     8     3    1.5992E+02  1.9807E-20   1.5992E+02  0.000E+00  0.000E+00  0.000E+00  1.01225E+03  2.879E+00  4.174E+01  4.253E-21  1.552E+00
   1   13    3     8     4    1.5992E+02  4.7211E-09   1.5992E+02  0.000E+00  0.000E+00  0.000E+00  1.00601E+03  2.884E+00  4.181E+01  4.261E-09  3.693E-01
   1   13    2     8     5    1.5992E+02 -1.2914E+00   1.6121E+02  0.000E+00  0.000E+00  0.000E+00  9.99765E+02  2.890E+00  4.190E+01  4.270E+00 -1.008E-01
   1   13    1     8     6    1.6121E+02 -1.6879E+00   1.6290E+02  0.000E+00  0.000E+00  0.000E+00  9.94775E+02  2.900E+00  4.205E+01  2.571E+00 -2.189E-01
   1    6    8     9     1    0.0000E+00  0.0000E+00   0.0000E+00  0.000E+00  0.000E+00  0.000E+00  1.07850E+03  0.000E+00  4.000E+00  0.000E+00  1.000E+00





UNSATURATED ZONE PACKAGE VOLUMETRIC BUDGET FOR  TIME STEP    30 STRESS PERIOD   11
  ------------------------------------------------------------------------------



     CUMULATIVE VOLUMES      L**3       RATES FOR THIS TIME STEP      L**3/T
     ------------------                 ------------------------

           IN:                                      IN:
           ---                                      ---
        INFILTRATION =    54546093.1201          INFILTRATION =           0.8475

          OUT:                                     OUT:
          ----                                     ----
              UZF ET =   563868999.5494                UZF ET =           0.0850
        UZF RECHARGE =   723010362.3574          UZF RECHARGE =          25.9824

            IN - OUT = -1232333268.7867              IN - OUT =         -25.2198

          STORAGE:                                 STORAGE:
          --------                                 --------
      STORAGE CHANGE = -1232325481.1602        STORAGE CHANGE =         -25.2198

 PERCENT DISCREPANCY IS DIFFERENCE BETWEEN IN-OUT MINUS CHANGE IN STORAGE
 DIVIDED BY THE AVERAGE OF IN AND OUT TIMES 100

 PERCENT DISCREPANCY =          -0.00     PERCENT DISCREPANCY =           0.00






1
  VOLUMETRIC BUDGET FOR ENTIRE MODEL AT END OF TIME STEP   30, STRESS PERIOD  11
  ------------------------------------------------------------------------------

     CUMULATIVE VOLUMES      L**3       RATES FOR THIS TIME STEP      L**3/T
     ------------------                 ------------------------

           IN:                                      IN:
           ---                                      ---
             STORAGE =    16149497.0000               STORAGE =           0.0000
       CONSTANT HEAD =           0.0000         CONSTANT HEAD =           0.0000
               WELLS =           0.0000                 WELLS =           0.0000
     HEAD DEP BOUNDS =    30327906.0000       HEAD DEP BOUNDS =           1.0234
      STREAM LEAKAGE =   113819672.0000        STREAM LEAKAGE =           3.5585
        UZF RECHARGE =   723010496.0000          UZF RECHARGE =          25.9824
               GW ET =           0.0000                 GW ET =           0.0000
     SURFACE LEAKAGE =           0.0000       SURFACE LEAKAGE =           0.0000

            TOTAL IN =   883307584.0000              TOTAL IN =          30.5643

          OUT:                                     OUT:
          ----                                     ----
             STORAGE =   773668736.0000               STORAGE =          27.2239
       CONSTANT HEAD =           0.0000         CONSTANT HEAD =           0.0000
               WELLS =     1059111.1250                 WELLS =           0.0000
     HEAD DEP BOUNDS =     8195191.5000       HEAD DEP BOUNDS =           0.2824
      STREAM LEAKAGE =    62907060.0000        STREAM LEAKAGE =           2.9793
        UZF RECHARGE =           0.0000          UZF RECHARGE =           0.0000
               GW ET =    37409752.0000                 GW ET =       7.4531E-02
     SURFACE LEAKAGE =           0.0000       SURFACE LEAKAGE =           0.0000

           TOTAL OUT =   883239872.0000             TOTAL OUT =          30.5602

            IN - OUT =       67712.0000              IN - OUT =       4.0760E-03

 PERCENT DISCREPANCY =           0.01     PERCENT DISCREPANCY =           0.01






         TIME SUMMARY AT END OF TIME STEP   30 IN STRESS PERIOD   11
                    SECONDS     MINUTES      HOURS       DAYS        YEARS
                    -----------------------------------------------------------
   TIME STEP LENGTH  87600.      1460.0      24.333      1.0139     2.77588E-03
 STRESS PERIOD TIME 2.62800E+06  43800.      730.00      30.417     8.32763E-02
         TOTAL TIME 2.89080E+07 4.81800E+05  8030.0      334.58     0.91604    
1
1
                            STRESS PERIOD NO.   12, LENGTH =   2628000.    
                            -----------------------------------------------

                              NUMBER OF TIME STEPS =    30

                               MULTIPLIER FOR DELT =     1.000

                            INITIAL TIME STEP SIZE =   87600.00    

 WELL NO.  LAYER   ROW   COL   STRESS RATE         
 --------------------------------------------------
      1      1      6      4       0.000    
      2      1      6      7       0.000    
      3      1      7      4       0.000    
      4      1      7      5       0.000    
      5      1      8      4       0.000    
      6      1      8      5       0.000    
      7      1      9      4       0.000    
      8      1      9      5       0.000    
      9      1     10      4       0.000    
     10      1     10      5       0.000    

     10 WELLS

 REUSING NON-PARAMETER GHB CELLS FROM LAST STRESS PERIOD

      2 GHB CELLS

 REUSING STREAM SEGMENT DATA FROM LAST STRESS PERIOD



            AREAL INFILTRATION RATE
 READING ON UNIT   19 WITH FORMAT: (10F4.0)            

            1           2           3           4           5           6           7           8           9          10
 ........................................................................................................................
   1   1.0000E-10  2.0000E-10   0.000       0.000       0.000       0.000       0.000       0.000       0.000       0.000    
   2   2.0000E-10  1.0000E-10  2.0000E-10   0.000       0.000      8.0000E-10  8.0000E-10  5.0000E-10   0.000       0.000    
   3    0.000      5.0000E-10  1.0000E-10  1.0000E-10  8.0000E-10  8.0000E-10  5.0000E-10  5.0000E-10   0.000       0.000    
   4   8.0000E-10  5.0000E-10  1.0000E-10  1.0000E-10  1.0000E-10  1.0000E-10  1.0000E-10  1.0000E-10  2.0000E-10   0.000    
   5   8.0000E-10  5.0000E-10  1.0000E-10  1.0000E-10  1.0000E-10  1.0000E-10  1.0000E-10  1.0000E-10  1.0000E-10  1.0000E-10
   6   8.0000E-10  5.0000E-10  5.0000E-10  2.0000E-10  2.0000E-10  1.0000E-10  1.0000E-10  1.0000E-10  1.0000E-10  5.0000E-10
   7   8.0000E-10  5.0000E-10  5.0000E-10  2.0000E-10  2.0000E-10  1.0000E-10  1.0000E-10  2.0000E-10  2.0000E-10   0.000    
   8    0.000      5.0000E-10  5.0000E-10  2.0000E-10  2.0000E-10  1.0000E-10  1.0000E-10  2.0000E-10  5.0000E-10   0.000    
   9    0.000      5.0000E-10  5.0000E-10  2.0000E-10  2.0000E-10  1.0000E-10  1.0000E-10  2.0000E-10  5.0000E-10   0.000    
  10    0.000      5.0000E-10  5.0000E-10  2.0000E-10  2.0000E-10  1.0000E-10  1.0000E-10  2.0000E-10  5.0000E-10  8.0000E-10
  11    0.000      1.0000E-10  1.0000E-10  1.0000E-10  1.0000E-10  1.0000E-10  1.0000E-10  2.0000E-10  5.0000E-10   0.000    
  12   1.0000E-10  1.0000E-10  1.0000E-10  1.0000E-10  1.0000E-10  1.0000E-10  1.0000E-10  1.0000E-10  2.0000E-10   0.000    
  13   1.0000E-10  1.0000E-10  2.0000E-10  2.0000E-10  2.0000E-10  2.0000E-10  2.0000E-10  1.0000E-10  1.0000E-10   0.000    
  14    0.000      2.0000E-10  5.0000E-10  5.0000E-10  5.0000E-10  5.0000E-10  5.0000E-10  2.0000E-10  1.0000E-10   0.000    
  15    0.000       0.000      8.0000E-10  8.0000E-10  8.0000E-10  8.0000E-10   0.000       0.000       0.000       0.000    

                  ET RATE =  1.000000E-10

 USING ET EXTINCTION DEPTH FROM PREVIOUS STRESS PERIOD. CURRENT PERIOD IS:      12

 USING EXTINCTION WATER CONTENT FROM PREVIOUS STRESS PERIOD. CURRENT PERIOD IS:      12
 
 SOLVING FOR HEAD 
                                                   Max.-Head-Change                         Max.-Flux-Residual
  Residual-Control   Outer-Iter.   Inner-Iter.     Column Row Layer    Maximum-Head-Change  Column Row Layer    Maximum-Flux-Residual          L2-NORM 
          0                 1           2             3   13     1       0.9580580285E-02       3   13    1         0.5076365126E+00      0.1845884132E+01
          0                 2           2             8    2     1       0.2614250955E-02       8    2    1         0.6787812536E-01      0.4402069943E+00
          0                 3           2             8    2     1       0.1175286795E-02       8    2    1         0.3051599504E-01      0.1596661150E+00
          0                 4           2             8    2     1       0.5283711560E-03       8    2    1         0.1371904516E-01      0.6873523771E-01
          0                 5           2             8    2     1       0.2375379495E-03       8    2    1         0.6167638237E-02      0.3059553233E-01
          0                 6           1             8    2     1       0.1067887633E-03       8    2    1         0.2772761739E-02      0.1369100320E-01
          0                 7           1             8    2     1       0.4800834743E-04       8    2    1         0.1246536106E-02      0.6131690211E-02
          0                 8           1             8    2     1       0.2158274085E-04       8    2    1         0.5603970169E-03      0.2746629573E-02
          0                 9           1             8    2     1       0.9702755041E-05       8    2    1         0.2519332004E-03      0.1230411167E-02

    ------------------------------------------------
       NWT REQUIRED            9 OUTER ITERATIONS 
       AND A TOTAL OF         14 INNER ITERATIONS.
    ------------------------------------------------

 NO OUTPUT CONTROL FOR STRESS PERIOD   12   TIME STEP    1
 
 SOLVING FOR HEAD 
                                                   Max.-Head-Change                         Max.-Flux-Residual
  Residual-Control   Outer-Iter.   Inner-Iter.     Column Row Layer    Maximum-Head-Change  Column Row Layer    Maximum-Flux-Residual          L2-NORM 
          0                 1           2             3   13     1       0.9422269243E-02       3   13    1         0.4991757200E+00      0.1843084986E+01
          0                 2           2             8    2     1       0.2613603502E-02       8    2    1         0.6786146421E-01      0.4399884778E+00
          0                 3           2             8    2     1       0.1174992564E-02       8    2    1         0.3050842237E-01      0.1595912545E+00
          0                 4           2             8    2     1       0.5282374691E-03       8    2    1         0.1371560393E-01      0.6869979480E-01
          0                 5           2             8    2     1       0.2374772182E-03       8    2    1         0.6166074725E-02      0.3057939881E-01
          0                 6           1             8    2     1       0.1067611788E-03       8    2    1         0.2772051484E-02      0.1368373372E-01
          0                 7           1             8    2     1       0.4799582037E-04       8    2    1         0.1246213513E-02      0.6128420442E-02
          0                 8           1             8    2     1       0.2157705270E-04       8    2    1         0.5602505228E-03      0.2745159455E-02
          0                 9           1             8    2     1       0.9700172770E-05       8    2    1         0.2518666875E-03      0.1229750186E-02

    ------------------------------------------------
       NWT REQUIRED            9 OUTER ITERATIONS 
       AND A TOTAL OF         14 INNER ITERATIONS.
    ------------------------------------------------

 NO OUTPUT CONTROL FOR STRESS PERIOD   12   TIME STEP    2
 
 SOLVING FOR HEAD 
                                                   Max.-Head-Change                         Max.-Flux-Residual
  Residual-Control   Outer-Iter.   Inner-Iter.     Column Row Layer    Maximum-Head-Change  Column Row Layer    Maximum-Flux-Residual          L2-NORM 
          0                 1           2             3   13     1       0.9268249724E-02       3   13    1         0.4909541104E+00      0.1840334402E+01
          0                 2           2             8    2     1       0.2612946101E-02       8    2    1         0.6784454433E-01      0.4397640675E+00
          0                 3           2             8    2     1       0.1174693872E-02       8    2    1         0.3050073364E-01      0.1595169020E+00
          0                 4           2             8    2     1       0.5281017811E-03       8    2    1         0.1371211064E-01      0.6866457795E-01
          0                 5           2             8    2     1       0.2374155891E-03       8    2    1         0.6164487866E-02      0.3056336683E-01
          0                 6           1             8    2     1       0.1067331919E-03       8    2    1         0.2771330761E-02      0.1367650971E-01
          0                 7           1             8    2     1       0.4798311273E-04       8    2    1         0.1245886226E-02      0.6125171062E-02
          0                 8           1             8    2     1       0.2157128413E-04       8    2    1         0.5601019264E-03      0.2743698213E-02
          0                 9           1             8    2     1       0.9697554232E-05       8    2    1         0.2517992272E-03      0.1229093160E-02

    ------------------------------------------------
       NWT REQUIRED            9 OUTER ITERATIONS 
       AND A TOTAL OF         14 INNER ITERATIONS.
    ------------------------------------------------

 NO OUTPUT CONTROL FOR STRESS PERIOD   12   TIME STEP    3
 
 SOLVING FOR HEAD 
                                                   Max.-Head-Change                         Max.-Flux-Residual
  Residual-Control   Outer-Iter.   Inner-Iter.     Column Row Layer    Maximum-Head-Change  Column Row Layer    Maximum-Flux-Residual          L2-NORM 
          0                 1           2             3   13     1       0.9118398617E-02       3   13    1         0.4829444961E+00      0.1837792806E+01
          0                 2           2             8    2     1       0.2612259383E-02       8    2    1         0.6782686080E-01      0.4395278670E+00
          0                 3           2             8    2     1       0.1174382051E-02       8    2    1         0.3049270294E-01      0.1594373361E+00
          0                 4           2             8    2     1       0.5280329134E-03       8    2    1         0.1370967900E-01      0.6862860951E-01
          0                 5           2             8    2     1       0.2373984651E-03       8    2    1         0.6163748332E-02      0.3054717434E-01
          0                 6           1             8    2     1       0.1067318325E-03       8    2    1         0.2771160361E-02      0.1366923154E-01
          0                 7           1             8    2     1       0.4798540500E-04       8    2    1         0.1245883869E-02      0.6121900093E-02
          0                 8           1             8    2     1       0.2157364356E-04       8    2    1         0.5601348690E-03      0.2742228332E-02
          0                 9           1             8    2     1       0.9699223473E-05       8    2    1         0.2518296089E-03      0.1228432643E-02

    ------------------------------------------------
       NWT REQUIRED            9 OUTER ITERATIONS 
       AND A TOTAL OF         14 INNER ITERATIONS.
    ------------------------------------------------

 NO OUTPUT CONTROL FOR STRESS PERIOD   12   TIME STEP    4
 
 SOLVING FOR HEAD 
                                                   Max.-Head-Change                         Max.-Flux-Residual
  Residual-Control   Outer-Iter.   Inner-Iter.     Column Row Layer    Maximum-Head-Change  Column Row Layer    Maximum-Flux-Residual          L2-NORM 
          0                 1           2             3   13     1       0.8972834169E-02       3   13    1         0.4751639427E+00      0.1834823107E+01
          0                 2           2             8    2     1       0.2611901519E-02       8    2    1         0.6781447468E-01      0.4392587104E+00
          0                 3           2             8    2     1       0.1174287718E-02       8    2    1         0.3048883502E-01      0.1593569795E+00
          0                 4           2             8    2     1       0.5279483066E-03       8    2    1         0.1370750493E-01      0.6859265276E-01
          0                 5           2             8    2     1       0.2373599490E-03       8    2    1         0.6162758453E-02      0.3053095338E-01
          0                 6           1             8    2     1       0.1067143024E-03       8    2    1         0.2770709753E-02      0.1366193316E-01
          0                 7           1             8    2     1       0.4797742808E-04       8    2    1         0.1245678787E-02      0.6118618473E-02
          0                 8           1             8    2     1       0.2157001432E-04       8    2    1         0.5600415478E-03      0.2740753056E-02
          0                 9           1             8    2     1       0.9697572741E-05       8    2    1         0.2517871529E-03      0.1227769632E-02

    ------------------------------------------------
       NWT REQUIRED            9 OUTER ITERATIONS 
       AND A TOTAL OF         14 INNER ITERATIONS.
    ------------------------------------------------

 OUTPUT CONTROL FOR STRESS PERIOD   12   TIME STEP    5
    PRINT BUDGET
    SAVE BUDGET
 UBUDSV SAVING "         STORAGE" ON UNIT102 AT TIME STEP     5, STRESS PERIOD   12
 UBUDSV SAVING "   CONSTANT HEAD" ON UNIT102 AT TIME STEP     5, STRESS PERIOD   12
 UBUDSV SAVING "FLOW RIGHT FACE " ON UNIT102 AT TIME STEP     5, STRESS PERIOD   12
 UBUDSV SAVING "FLOW FRONT FACE " ON UNIT102 AT TIME STEP     5, STRESS PERIOD   12

  HEAD DEP BOUNDS   PERIOD   12   STEP     5
 BOUNDARY      1   LAYER   1   ROW    13   COL     1   RATE   -0.282862    
 BOUNDARY      2   LAYER   1   ROW    14   COL     9   RATE     1.02259    



 STREAM LISTING     PERIOD     12   STEP        5

 LAYER ROW COL. STREAM  RCH.  FLOW INTO     FLOW TO   FLOW OUT OF   OVRLND.     DIRECT     STREAM       STREAM     STREAM     STREAM   STREAMBED  STREAMBED
                SEG.NO.  NO.  STRM. RCH.    AQUIFER    STRM. RCH.    RUNOFF     PRECIP       ET          HEAD       DEPTH      WIDTH   CONDCTNC.   GRADIENT

   1    1    1     1     1    3.3000E+00  8.1313E-10   3.3000E+00  0.000E+00  0.000E+00  0.000E+00  1.09370E+03  6.519E-01  4.948E+00  2.227E-10  1.217E+00
   1    2    2     1     2    3.3000E+00  1.2614E-09   3.3000E+00  0.000E+00  0.000E+00  0.000E+00  1.08871E+03  6.503E-01  4.937E+00  3.456E-10  1.217E+00
   1    3    3     1     3    3.3000E+00  1.0824E-09   3.3000E+00  0.000E+00  0.000E+00  0.000E+00  1.08307E+03  6.509E-01  4.941E+00  2.965E-10  1.217E+00
   1    3    4     1     4    3.3000E+00  1.0017E-09   3.3000E+00  0.000E+00  0.000E+00  0.000E+00  1.07806E+03  6.512E-01  4.943E+00  2.743E-10  1.217E+00
   1    4    5     2     1    1.3000E+00  2.4904E-01   1.0510E+00  0.000E+00  0.000E+00  0.000E+00  1.07213E+03  1.929E-01  1.200E+01  7.800E-02  1.064E+00
   1    5    6     2     2    1.0510E+00  1.9022E-01   8.6073E-01  0.000E+00  0.000E+00  0.000E+00  1.06668E+03  1.704E-01  1.200E+01  6.000E-02  1.057E+00
   1    6    6     2     3    8.6073E-01  1.8895E-01   6.7178E-01  0.000E+00  0.000E+00  0.000E+00  1.06194E+03  1.492E-01  1.200E+01  6.000E-02  1.050E+00
   1    7    6     2     4    6.7178E-01  1.8756E-01   4.8422E-01  0.000E+00  0.000E+00  0.000E+00  1.05720E+03  1.260E-01  1.200E+01  6.000E-02  1.042E+00
   1    8    6     2     5    4.8422E-01  1.8598E-01   2.9824E-01  0.000E+00  0.000E+00  0.000E+00  1.05246E+03  9.968E-02  1.200E+01  6.000E-02  1.033E+00
   1    3    5     3     1    2.0000E+00  2.8252E-01   1.7175E+00  0.000E+00  0.000E+00  0.000E+00  1.07555E+03  1.909E+00  9.636E+00  7.227E-02  1.955E+00
   1    3    6     3     2    1.7175E+00  2.4905E-01   1.4684E+00  0.000E+00  0.000E+00  0.000E+00  1.07264E+03  1.727E+00  8.909E+00  6.682E-02  1.864E+00
   1    3    7     3     3    1.4684E+00  1.9718E-01   1.2712E+00  0.000E+00  0.000E+00  0.000E+00  1.06987E+03  1.555E+00  8.218E+00  5.547E-02  1.777E+00
   1    4    8     3     4    1.2712E+00  2.2567E-01   1.0456E+00  0.000E+00  0.000E+00  0.000E+00  1.06682E+03  1.364E+00  7.455E+00  6.709E-02  1.682E+00
   1    5    8     3     5    1.0456E+00  1.5790E-01   8.8768E-01  0.000E+00  0.000E+00  0.000E+00  1.06362E+03  1.164E+00  6.655E+00  4.991E-02  1.582E+00
   1    6    8     3     6    8.8768E-01  5.5980E-02   8.3170E-01  0.000E+00  0.000E+00  0.000E+00  1.06158E+03  1.036E+00  6.145E+00  1.844E-02  1.518E+00
   1    5   10     4     1    1.0000E+01  9.0919E-02   9.9091E+00  0.000E+00  0.000E+00  0.000E+00  1.07836E+03  6.368E-01  1.000E+01  2.500E-02  1.212E+00
   1    5    9     4     2    9.9091E+00  1.8158E-01   9.7275E+00  0.000E+00  0.000E+00  0.000E+00  1.07154E+03  6.315E-01  1.000E+01  5.000E-02  1.211E+00
   1    6    8     4     3    9.7275E+00  1.2689E-01   9.6006E+00  0.000E+00  0.000E+00  0.000E+00  1.06381E+03  6.256E-01  1.000E+01  3.500E-02  1.209E+00
   1    6    8     5     1    1.0432E+01  2.2686E-09   1.0432E+01  0.000E+00  0.000E+00  0.000E+00  1.05868E+03  6.790E-01  1.542E+01  6.166E-10  1.226E+00
   1    7    7     5     2    1.0432E+01  2.8306E-09   1.0432E+01  0.000E+00  0.000E+00  0.000E+00  1.05418E+03  6.784E-01  1.539E+01  7.695E-10  1.226E+00
   1    8    7     5     3    1.0432E+01  1.9868E-09   1.0432E+01  0.000E+00  0.000E+00  0.000E+00  1.04993E+03  6.794E-01  1.543E+01  5.400E-10  1.226E+00
   1    8    6     5     4    1.0432E+01  1.4217E-09   1.0432E+01  0.000E+00  0.000E+00  0.000E+00  1.04693E+03  6.800E-01  1.545E+01  3.863E-10  1.227E+00
   1    9    6     6     1    1.0731E+01  2.2383E-01   1.0507E+01  0.000E+00  0.000E+00  0.000E+00  1.04346E+03  7.305E-01  1.200E+01  6.000E-02  1.243E+00
   1   10    7     6     2    1.0507E+01  2.2327E-01   1.0283E+01  0.000E+00  0.000E+00  0.000E+00  1.03890E+03  7.212E-01  1.200E+01  6.000E-02  1.240E+00
   1   11    7     6     3    1.0283E+01  2.2271E-01   1.0061E+01  0.000E+00  0.000E+00  0.000E+00  1.03435E+03  7.119E-01  1.200E+01  6.000E-02  1.237E+00
   1   12    7     6     4    1.0061E+01  2.2215E-01   9.8386E+00  0.000E+00  0.000E+00  0.000E+00  1.02979E+03  7.025E-01  1.200E+01  6.000E-02  1.234E+00
   1   13    7     6     5    9.8386E+00  8.8702E-02   9.7499E+00  0.000E+00  0.000E+00  0.000E+00  1.02660E+03  6.959E-01  1.200E+01  2.400E-02  1.232E+00
   1   14    9     7     1    1.5000E+02  2.9539E-08   1.5000E+02  0.000E+00  0.000E+00  0.000E+00  1.03986E+03  2.283E+00  5.528E+01  5.591E-09  1.761E+00
   1   13    8     7     2    1.5000E+02  3.2486E-14   1.5000E+02  0.000E+00  0.000E+00  0.000E+00  1.03478E+03  2.283E+00  5.527E+01  6.150E-15  1.761E+00
   1   13    7     7     3    1.5000E+02  2.9539E-08   1.5000E+02  0.000E+00  0.000E+00  0.000E+00  1.02970E+03  2.283E+00  5.528E+01  5.591E-09  1.761E+00
   1   13    6     8     1    1.5975E+02  2.5076E-32   1.5975E+02  0.000E+00  0.000E+00  0.000E+00  1.02476E+03  2.884E+00  4.182E+01  4.262E-33  1.961E+00
   1   13    5     8     2    1.5975E+02  2.4966E-12   1.5975E+02  0.000E+00  0.000E+00  0.000E+00  1.01850E+03  2.876E+00  4.170E+01  4.249E-13  1.959E+00
   1   13    4     8     3    1.5975E+02  1.9767E-29   1.5975E+02  0.000E+00  0.000E+00  0.000E+00  1.01226E+03  2.884E+00  4.182E+01  4.262E-30  1.546E+00
   1   13    3     8     4    1.5975E+02  4.5345E-08   1.5975E+02  0.000E+00  0.000E+00  0.000E+00  1.00601E+03  2.883E+00  4.180E+01  4.259E-08  3.549E-01
   1   13    2     8     5    1.5975E+02 -1.3369E+00   1.6109E+02  0.000E+00  0.000E+00  0.000E+00  9.99764E+02  2.889E+00  4.189E+01  4.268E+00 -1.044E-01
   1   13    1     8     6    1.6109E+02 -1.7214E+00   1.6281E+02  0.000E+00  0.000E+00  0.000E+00  9.94774E+02  2.899E+00  4.204E+01  2.570E+00 -2.233E-01
   1    6    8     9     1    0.0000E+00  0.0000E+00   0.0000E+00  0.000E+00  0.000E+00  0.000E+00  1.07850E+03  0.000E+00  4.000E+00  0.000E+00  1.000E+00



 UBDSV3 SAVING "     NETRECHARGE" ON UNIT 100 AT TIME STEP     5, STRESS PERIOD  12
 UBDSV3 SAVING "    NETDISCHARGE" ON UNIT 101 AT TIME STEP     5, STRESS PERIOD  12
 UBDSV3 SAVING "           GW ET" ON UNIT  61 AT TIME STEP     5, STRESS PERIOD  12
 UBDSV3 SAVING "    UZF RECHARGE" ON UNIT  61 AT TIME STEP     5, STRESS PERIOD  12
 UBDSV3 SAVING " SURFACE LEAKAGE" ON UNIT  61 AT TIME STEP     5, STRESS PERIOD  12
 UBDSV3 SAVING "       HORT+DUNN" ON UNIT  61 AT TIME STEP     5, STRESS PERIOD  12
 UBDSV3 SAVING "  STORAGE CHANGE" ON UNIT  61 AT TIME STEP     5, STRESS PERIOD  12


UNSATURATED ZONE PACKAGE VOLUMETRIC BUDGET FOR  TIME STEP     5 STRESS PERIOD   12
  ------------------------------------------------------------------------------



     CUMULATIVE VOLUMES      L**3       RATES FOR THIS TIME STEP      L**3/T
     ------------------                 ------------------------

           IN:                                      IN:
           ---                                      ---
        INFILTRATION =    54917298.1201          INFILTRATION =           0.8475

          OUT:                                     OUT:
          ----                                     ----
              UZF ET =   563872782.8818                UZF ET =           0.0087
        UZF RECHARGE =   734387083.7842          UZF RECHARGE =          25.9630

            IN - OUT = -1243342568.5459              IN - OUT =         -25.1242

          STORAGE:                                 STORAGE:
          --------                                 --------
      STORAGE CHANGE = -1243334780.9261        STORAGE CHANGE =         -25.1242

 PERCENT DISCREPANCY IS DIFFERENCE BETWEEN IN-OUT MINUS CHANGE IN STORAGE
 DIVIDED BY THE AVERAGE OF IN AND OUT TIMES 100

 PERCENT DISCREPANCY =          -0.00     PERCENT DISCREPANCY =           0.00






1
  VOLUMETRIC BUDGET FOR ENTIRE MODEL AT END OF TIME STEP    5, STRESS PERIOD  12
  ------------------------------------------------------------------------------

     CUMULATIVE VOLUMES      L**3       RATES FOR THIS TIME STEP      L**3/T
     ------------------                 ------------------------

           IN:                                      IN:
           ---                                      ---
             STORAGE =    16149497.0000               STORAGE =           0.0000
       CONSTANT HEAD =           0.0000         CONSTANT HEAD =           0.0000
               WELLS =           0.0000                 WELLS =           0.0000
     HEAD DEP BOUNDS =    30775944.0000       HEAD DEP BOUNDS =           1.0226
      STREAM LEAKAGE =   115374632.0000        STREAM LEAKAGE =           3.5501
        UZF RECHARGE =   734387200.0000          UZF RECHARGE =          25.9630
               GW ET =           0.0000                 GW ET =           0.0000
     SURFACE LEAKAGE =           0.0000       SURFACE LEAKAGE =           0.0000

            TOTAL IN =   896687232.0000              TOTAL IN =          30.5357

          OUT:                                     OUT:
          ----                                     ----
             STORAGE =   785592192.0000               STORAGE =          27.1831
       CONSTANT HEAD =           0.0000         CONSTANT HEAD =           0.0000
               WELLS =     1059111.1250                 WELLS =           0.0000
     HEAD DEP BOUNDS =     8319006.5000       HEAD DEP BOUNDS =           0.2829
      STREAM LEAKAGE =    64234440.0000        STREAM LEAKAGE =           3.0583
        UZF RECHARGE =           0.0000          UZF RECHARGE =           0.0000
               GW ET =    37413012.0000                 GW ET =       7.4497E-03
     SURFACE LEAKAGE =           0.0000       SURFACE LEAKAGE =           0.0000

           TOTAL OUT =   896617728.0000             TOTAL OUT =          30.5316

            IN - OUT =       69504.0000              IN - OUT =       4.0722E-03

 PERCENT DISCREPANCY =           0.01     PERCENT DISCREPANCY =           0.01






         TIME SUMMARY AT END OF TIME STEP    5 IN STRESS PERIOD   12
                    SECONDS     MINUTES      HOURS       DAYS        YEARS
                    -----------------------------------------------------------
   TIME STEP LENGTH  87600.      1460.0      24.333      1.0139     2.77588E-03
 STRESS PERIOD TIME 4.38000E+05  7300.0      121.67      5.0694     1.38794E-02
         TOTAL TIME 2.93460E+07 4.89100E+05  8151.7      339.65     0.92992    
1
 
 SOLVING FOR HEAD 
                                                   Max.-Head-Change                         Max.-Flux-Residual
  Residual-Control   Outer-Iter.   Inner-Iter.     Column Row Layer    Maximum-Head-Change  Column Row Layer    Maximum-Flux-Residual          L2-NORM 
          0                 1           2             3   13     1       0.8831496351E-02       3   13    1         0.4676093432E+00      0.1832621543E+01
          0                 2           2             8    2     1       0.2611465846E-02       8    2    1         0.6780327548E-01      0.4390681546E+00
          0                 3           2             8    2     1       0.1174089471E-02       8    2    1         0.3048373815E-01      0.1592821551E+00
          0                 4           2             8    2     1       0.5278581139E-03       8    2    1         0.1370518575E-01      0.6855702038E-01
          0                 5           2             8    2     1       0.2373189236E-03       8    2    1         0.6161703376E-02      0.3051473711E-01
          0                 6           1             8    2     1       0.1066956446E-03       8    2    1         0.2770229850E-02      0.1365462864E-01
          0                 7           1             8    2     1       0.4796894457E-04       8    2    1         0.1245460543E-02      0.6115333861E-02
          0                 8           1             8    2     1       0.2156615748E-04       8    2    1         0.5599423118E-03      0.2739276535E-02
          0                 9           1             8    2     1       0.9695819462E-05       8    2    1         0.2517420368E-03      0.1227105951E-02

    ------------------------------------------------
       NWT REQUIRED            9 OUTER ITERATIONS 
       AND A TOTAL OF         14 INNER ITERATIONS.
    ------------------------------------------------

 NO OUTPUT CONTROL FOR STRESS PERIOD   12   TIME STEP    6
 
 SOLVING FOR HEAD 
                                                   Max.-Head-Change                         Max.-Flux-Residual
  Residual-Control   Outer-Iter.   Inner-Iter.     Column Row Layer    Maximum-Head-Change  Column Row Layer    Maximum-Flux-Residual          L2-NORM 
          0                 1           2             3   13     1       0.8694010455E-02       3   13    1         0.4602607929E+00      0.1830538696E+01
          0                 2           2             8    2     1       0.2611022816E-02       8    2    1         0.6779188395E-01      0.4388831236E+00
          0                 3           2             8    2     1       0.1173887944E-02       8    2    1         0.3047855553E-01      0.1592077721E+00
          0                 4           2             8    2     1       0.5277664591E-03       8    2    1         0.1370282833E-01      0.6852147691E-01
          0                 5           2             8    2     1       0.2372772461E-03       8    2    1         0.6160631251E-02      0.3049856401E-01
          0                 6           1             8    2     1       0.1066766962E-03       8    2    1         0.2769742350E-02      0.1364734368E-01
          0                 7           1             8    2     1       0.4796033124E-04       8    2    1         0.1245238914E-02      0.6112059793E-02
          0                 8           1             8    2     1       0.2156224312E-04       8    2    1         0.5598415739E-03      0.2737808249E-02
          0                 9           1             8    2     1       0.9694040547E-05       8    2    1         0.2516962525E-03      0.1226453305E-02

    ------------------------------------------------
       NWT REQUIRED            9 OUTER ITERATIONS 
       AND A TOTAL OF         14 INNER ITERATIONS.
    ------------------------------------------------

 NO OUTPUT CONTROL FOR STRESS PERIOD   12   TIME STEP    7
 
 SOLVING FOR HEAD 
                                                   Max.-Head-Change                         Max.-Flux-Residual
  Residual-Control   Outer-Iter.   Inner-Iter.     Column Row Layer    Maximum-Head-Change  Column Row Layer    Maximum-Flux-Residual          L2-NORM 
          0                 1           2             3   13     1       0.8560480975E-02       3   13    1         0.4531237181E+00      0.1828576688E+01
          0                 2           2             8    2     1       0.2610572543E-02       8    2    1         0.6778030300E-01      0.4387023553E+00
          0                 3           2             8    2     1       0.1173683188E-02       8    2    1         0.3047328848E-01      0.1591333441E+00
          0                 4           2             8    2     1       0.5276733651E-03       8    2    1         0.1370043329E-01      0.6848593550E-01
          0                 5           2             8    2     1       0.2372349276E-03       8    2    1         0.6159542364E-02      0.3048239234E-01
          0                 6           1             8    2     1       0.1066574624E-03       8    2    1         0.2769247376E-02      0.1364005926E-01
          0                 7           1             8    2     1       0.4795159049E-04       8    2    1         0.1245013950E-02      0.6108781940E-02
          0                 8           1             8    2     1       0.2155827173E-04       8    2    1         0.5597393478E-03      0.2736331201E-02
          0                 9           1             8    2     1       0.9692236371E-05       8    2    1         0.2516498059E-03      0.1225782147E-02

    ------------------------------------------------
       NWT REQUIRED            9 OUTER ITERATIONS 
       AND A TOTAL OF         14 INNER ITERATIONS.
    ------------------------------------------------

 NO OUTPUT CONTROL FOR STRESS PERIOD   12   TIME STEP    8
 
 SOLVING FOR HEAD 
                                                   Max.-Head-Change                         Max.-Flux-Residual
  Residual-Control   Outer-Iter.   Inner-Iter.     Column Row Layer    Maximum-Head-Change  Column Row Layer    Maximum-Flux-Residual          L2-NORM 
          0                 1           2             3   13     1       0.8430725026E-02       3   13    1         0.4461886529E+00      0.1826723132E+01
          0                 2           2             8    2     1       0.2610095447E-02       8    2    1         0.6776802527E-01      0.4385074900E+00
          0                 3           2             8    2     1       0.1173466381E-02       8    2    1         0.3046770837E-01      0.1590587025E+00
          0                 4           2             8    2     1       0.5275748570E-03       8    2    1         0.1369789759E-01      0.6845048129E-01
          0                 5           2             8    2     1       0.2371901766E-03       8    2    1         0.6158390281E-02      0.3046625609E-01
          0                 6           1             8    2     1       0.1066371353E-03       8    2    1         0.2768724012E-02      0.1363279088E-01
          0                 7           1             8    2     1       0.4794235901E-04       8    2    1         0.1244776235E-02      0.6105513778E-02
          0                 8           1             8    2     1       0.2155407975E-04       8    2    1         0.5596313904E-03      0.2734862002E-02
          0                 9           1             8    2     1       0.9690333276E-05       8    2    1         0.2516007870E-03      0.1225121694E-02

    ------------------------------------------------
       NWT REQUIRED            9 OUTER ITERATIONS 
       AND A TOTAL OF         14 INNER ITERATIONS.
    ------------------------------------------------

 NO OUTPUT CONTROL FOR STRESS PERIOD   12   TIME STEP    9
 
 SOLVING FOR HEAD 
                                                   Max.-Head-Change                         Max.-Flux-Residual
  Residual-Control   Outer-Iter.   Inner-Iter.     Column Row Layer    Maximum-Head-Change  Column Row Layer    Maximum-Flux-Residual          L2-NORM 
          0                 1           2             3   13     1       0.8304317002E-02       3   13    1         0.4394416409E+00      0.1824857015E+01
          0                 2           2             8    2     1       0.2609630825E-02       8    2    1         0.6775607094E-01      0.4383184911E+00
          0                 3           2             8    2     1       0.1173255192E-02       8    2    1         0.3046227393E-01      0.1589833386E+00
          0                 4           2             8    2     1       0.5274788791E-03       8    2    1         0.1369542750E-01      0.6841484498E-01
          0                 5           2             8    2     1       0.2371465648E-03       8    2    1         0.6157267743E-02      0.3045007991E-01
          0                 6           1             8    2     1       0.1066173215E-03       8    2    1         0.2768213956E-02      0.1362550667E-01
          0                 7           1             8    2     1       0.4793335877E-04       8    2    1         0.1244544514E-02      0.6102237906E-02
          0                 8           1             8    2     1       0.2154999168E-04       8    2    1         0.5595261323E-03      0.2733389586E-02
          0                 9           1             8    2     1       0.9688476827E-05       8    2    1         0.2515529843E-03      0.1224459865E-02

    ------------------------------------------------
       NWT REQUIRED            9 OUTER ITERATIONS 
       AND A TOTAL OF         14 INNER ITERATIONS.
    ------------------------------------------------

 OUTPUT CONTROL FOR STRESS PERIOD   12   TIME STEP   10
    PRINT BUDGET
    SAVE BUDGET
 UBUDSV SAVING "         STORAGE" ON UNIT102 AT TIME STEP    10, STRESS PERIOD   12
 UBUDSV SAVING "   CONSTANT HEAD" ON UNIT102 AT TIME STEP    10, STRESS PERIOD   12
 UBUDSV SAVING "FLOW RIGHT FACE " ON UNIT102 AT TIME STEP    10, STRESS PERIOD   12
 UBUDSV SAVING "FLOW FRONT FACE " ON UNIT102 AT TIME STEP    10, STRESS PERIOD   12

  HEAD DEP BOUNDS   PERIOD   12   STEP    10
 BOUNDARY      1   LAYER   1   ROW    13   COL     1   RATE   -0.283241    
 BOUNDARY      2   LAYER   1   ROW    14   COL     9   RATE     1.02179    



 STREAM LISTING     PERIOD     12   STEP       10

 LAYER ROW COL. STREAM  RCH.  FLOW INTO     FLOW TO   FLOW OUT OF   OVRLND.     DIRECT     STREAM       STREAM     STREAM     STREAM   STREAMBED  STREAMBED
                SEG.NO.  NO.  STRM. RCH.    AQUIFER    STRM. RCH.    RUNOFF     PRECIP       ET          HEAD       DEPTH      WIDTH   CONDCTNC.   GRADIENT

   1    1    1     1     1    3.3000E+00  8.1313E-10   3.3000E+00  0.000E+00  0.000E+00  0.000E+00  1.09370E+03  6.519E-01  4.948E+00  2.227E-10  1.217E+00
   1    2    2     1     2    3.3000E+00  1.2614E-09   3.3000E+00  0.000E+00  0.000E+00  0.000E+00  1.08871E+03  6.503E-01  4.937E+00  3.456E-10  1.217E+00
   1    3    3     1     3    3.3000E+00  1.0824E-09   3.3000E+00  0.000E+00  0.000E+00  0.000E+00  1.08307E+03  6.509E-01  4.941E+00  2.965E-10  1.217E+00
   1    3    4     1     4    3.3000E+00  1.0017E-09   3.3000E+00  0.000E+00  0.000E+00  0.000E+00  1.07806E+03  6.512E-01  4.943E+00  2.743E-10  1.217E+00
   1    4    5     2     1    1.3000E+00  2.4904E-01   1.0510E+00  0.000E+00  0.000E+00  0.000E+00  1.07213E+03  1.929E-01  1.200E+01  7.800E-02  1.064E+00
   1    5    6     2     2    1.0510E+00  1.9022E-01   8.6073E-01  0.000E+00  0.000E+00  0.000E+00  1.06668E+03  1.704E-01  1.200E+01  6.000E-02  1.057E+00
   1    6    6     2     3    8.6073E-01  1.8895E-01   6.7178E-01  0.000E+00  0.000E+00  0.000E+00  1.06194E+03  1.492E-01  1.200E+01  6.000E-02  1.050E+00
   1    7    6     2     4    6.7178E-01  1.8756E-01   4.8422E-01  0.000E+00  0.000E+00  0.000E+00  1.05720E+03  1.260E-01  1.200E+01  6.000E-02  1.042E+00
   1    8    6     2     5    4.8422E-01  1.8598E-01   2.9824E-01  0.000E+00  0.000E+00  0.000E+00  1.05246E+03  9.968E-02  1.200E+01  6.000E-02  1.033E+00
   1    3    5     3     1    2.0000E+00  2.8252E-01   1.7175E+00  0.000E+00  0.000E+00  0.000E+00  1.07555E+03  1.909E+00  9.636E+00  7.227E-02  1.955E+00
   1    3    6     3     2    1.7175E+00  2.4905E-01   1.4684E+00  0.000E+00  0.000E+00  0.000E+00  1.07264E+03  1.727E+00  8.909E+00  6.682E-02  1.864E+00
   1    3    7     3     3    1.4684E+00  1.9718E-01   1.2712E+00  0.000E+00  0.000E+00  0.000E+00  1.06987E+03  1.555E+00  8.218E+00  5.547E-02  1.777E+00
   1    4    8     3     4    1.2712E+00  2.2567E-01   1.0456E+00  0.000E+00  0.000E+00  0.000E+00  1.06682E+03  1.364E+00  7.455E+00  6.709E-02  1.682E+00
   1    5    8     3     5    1.0456E+00  1.5790E-01   8.8768E-01  0.000E+00  0.000E+00  0.000E+00  1.06362E+03  1.164E+00  6.655E+00  4.991E-02  1.582E+00
   1    6    8     3     6    8.8768E-01  5.5980E-02   8.3170E-01  0.000E+00  0.000E+00  0.000E+00  1.06158E+03  1.036E+00  6.145E+00  1.844E-02  1.518E+00
   1    5   10     4     1    1.0000E+01  9.0919E-02   9.9091E+00  0.000E+00  0.000E+00  0.000E+00  1.07836E+03  6.368E-01  1.000E+01  2.500E-02  1.212E+00
   1    5    9     4     2    9.9091E+00  1.8158E-01   9.7275E+00  0.000E+00  0.000E+00  0.000E+00  1.07154E+03  6.315E-01  1.000E+01  5.000E-02  1.211E+00
   1    6    8     4     3    9.7275E+00  1.2689E-01   9.6006E+00  0.000E+00  0.000E+00  0.000E+00  1.06381E+03  6.256E-01  1.000E+01  3.500E-02  1.209E+00
   1    6    8     5     1    1.0432E+01  2.2686E-09   1.0432E+01  0.000E+00  0.000E+00  0.000E+00  1.05868E+03  6.790E-01  1.542E+01  6.166E-10  1.226E+00
   1    7    7     5     2    1.0432E+01  2.8306E-09   1.0432E+01  0.000E+00  0.000E+00  0.000E+00  1.05418E+03  6.784E-01  1.539E+01  7.695E-10  1.226E+00
   1    8    7     5     3    1.0432E+01  1.9868E-09   1.0432E+01  0.000E+00  0.000E+00  0.000E+00  1.04993E+03  6.794E-01  1.543E+01  5.400E-10  1.226E+00
   1    8    6     5     4    1.0432E+01  1.4217E-09   1.0432E+01  0.000E+00  0.000E+00  0.000E+00  1.04693E+03  6.800E-01  1.545E+01  3.863E-10  1.227E+00
   1    9    6     6     1    1.0731E+01  2.2383E-01   1.0507E+01  0.000E+00  0.000E+00  0.000E+00  1.04346E+03  7.305E-01  1.200E+01  6.000E-02  1.243E+00
   1   10    7     6     2    1.0507E+01  2.2327E-01   1.0283E+01  0.000E+00  0.000E+00  0.000E+00  1.03890E+03  7.212E-01  1.200E+01  6.000E-02  1.240E+00
   1   11    7     6     3    1.0283E+01  2.2271E-01   1.0061E+01  0.000E+00  0.000E+00  0.000E+00  1.03435E+03  7.119E-01  1.200E+01  6.000E-02  1.237E+00
   1   12    7     6     4    1.0061E+01  2.2215E-01   9.8386E+00  0.000E+00  0.000E+00  0.000E+00  1.02979E+03  7.025E-01  1.200E+01  6.000E-02  1.234E+00
   1   13    7     6     5    9.8386E+00  8.8702E-02   9.7499E+00  0.000E+00  0.000E+00  0.000E+00  1.02660E+03  6.959E-01  1.200E+01  2.400E-02  1.232E+00
   1   14    9     7     1    1.5000E+02  2.9539E-08   1.5000E+02  0.000E+00  0.000E+00  0.000E+00  1.03986E+03  2.283E+00  5.528E+01  5.591E-09  1.761E+00
   1   13    8     7     2    1.5000E+02  3.2486E-14   1.5000E+02  0.000E+00  0.000E+00  0.000E+00  1.03478E+03  2.283E+00  5.527E+01  6.150E-15  1.761E+00
   1   13    7     7     3    1.5000E+02  2.9539E-08   1.5000E+02  0.000E+00  0.000E+00  0.000E+00  1.02970E+03  2.283E+00  5.528E+01  5.591E-09  1.761E+00
   1   13    6     8     1    1.5975E+02  2.5076E-32   1.5975E+02  0.000E+00  0.000E+00  0.000E+00  1.02476E+03  2.884E+00  4.182E+01  4.262E-33  1.961E+00
   1   13    5     8     2    1.5975E+02  2.4966E-12   1.5975E+02  0.000E+00  0.000E+00  0.000E+00  1.01850E+03  2.876E+00  4.170E+01  4.249E-13  1.959E+00
   1   13    4     8     3    1.5975E+02  1.9665E-30   1.5975E+02  0.000E+00  0.000E+00  0.000E+00  1.01226E+03  2.884E+00  4.182E+01  4.262E-31  1.538E+00
   1   13    3     8     4    1.5975E+02  4.3684E-08   1.5975E+02  0.000E+00  0.000E+00  0.000E+00  1.00601E+03  2.883E+00  4.180E+01  4.259E-08  3.419E-01
   1   13    2     8     5    1.5975E+02 -1.3711E+00   1.6112E+02  0.000E+00  0.000E+00  0.000E+00  9.99764E+02  2.889E+00  4.189E+01  4.268E+00 -1.071E-01
   1   13    1     8     6    1.6112E+02 -1.7464E+00   1.6287E+02  0.000E+00  0.000E+00  0.000E+00  9.94774E+02  2.899E+00  4.204E+01  2.570E+00 -2.265E-01
   1    6    8     9     1    0.0000E+00  0.0000E+00   0.0000E+00  0.000E+00  0.000E+00  0.000E+00  1.07850E+03  0.000E+00  4.000E+00  0.000E+00  1.000E+00



 UBDSV3 SAVING "     NETRECHARGE" ON UNIT 100 AT TIME STEP    10, STRESS PERIOD  12
 UBDSV3 SAVING "    NETDISCHARGE" ON UNIT 101 AT TIME STEP    10, STRESS PERIOD  12
 UBDSV3 SAVING "           GW ET" ON UNIT  61 AT TIME STEP    10, STRESS PERIOD  12
 UBDSV3 SAVING "    UZF RECHARGE" ON UNIT  61 AT TIME STEP    10, STRESS PERIOD  12
 UBDSV3 SAVING " SURFACE LEAKAGE" ON UNIT  61 AT TIME STEP    10, STRESS PERIOD  12
 UBDSV3 SAVING "       HORT+DUNN" ON UNIT  61 AT TIME STEP    10, STRESS PERIOD  12
 UBDSV3 SAVING "  STORAGE CHANGE" ON UNIT  61 AT TIME STEP    10, STRESS PERIOD  12


UNSATURATED ZONE PACKAGE VOLUMETRIC BUDGET FOR  TIME STEP    10 STRESS PERIOD   12
  ------------------------------------------------------------------------------



     CUMULATIVE VOLUMES      L**3       RATES FOR THIS TIME STEP      L**3/T
     ------------------                 ------------------------

           IN:                                      IN:
           ---                                      ---
        INFILTRATION =    55288503.1201          INFILTRATION =           0.8475

          OUT:                                     OUT:
          ----                                     ----
              UZF ET =   563876670.3223                UZF ET =           0.0090
        UZF RECHARGE =   745757587.2522          UZF RECHARGE =          25.9567

            IN - OUT = -1254345754.4543              IN - OUT =         -25.1182

          STORAGE:                                 STORAGE:
          --------                                 --------
      STORAGE CHANGE = -1254337966.8450        STORAGE CHANGE =         -25.1182

 PERCENT DISCREPANCY IS DIFFERENCE BETWEEN IN-OUT MINUS CHANGE IN STORAGE
 DIVIDED BY THE AVERAGE OF IN AND OUT TIMES 100

 PERCENT DISCREPANCY =          -0.00     PERCENT DISCREPANCY =           0.00






1
  VOLUMETRIC BUDGET FOR ENTIRE MODEL AT END OF TIME STEP   10, STRESS PERIOD  12
  ------------------------------------------------------------------------------

     CUMULATIVE VOLUMES      L**3       RATES FOR THIS TIME STEP      L**3/T
     ------------------                 ------------------------

           IN:                                      IN:
           ---                                      ---
             STORAGE =    16149497.0000               STORAGE =           0.0000
       CONSTANT HEAD =           0.0000         CONSTANT HEAD =           0.0000
               WELLS =           0.0000                 WELLS =           0.0000
     HEAD DEP BOUNDS =    31223624.0000       HEAD DEP BOUNDS =           1.0218
      STREAM LEAKAGE =   116929592.0000        STREAM LEAKAGE =           3.5501
        UZF RECHARGE =   745757760.0000          UZF RECHARGE =          25.9567
               GW ET =           0.0000                 GW ET =           0.0000
     SURFACE LEAKAGE =           0.0000       SURFACE LEAKAGE =           0.0000

            TOTAL IN =   910060480.0000              TOTAL IN =          30.5286

          OUT:                                     OUT:
          ----                                     ----
             STORAGE =   797480768.0000               STORAGE =          27.1163
       CONSTANT HEAD =           0.0000         CONSTANT HEAD =           0.0000
               WELLS =     1059111.1250                 WELLS =           0.0000
     HEAD DEP BOUNDS =     8443003.0000       HEAD DEP BOUNDS =           0.2832
      STREAM LEAKAGE =    65589932.0000        STREAM LEAKAGE =           3.1175
        UZF RECHARGE =           0.0000          UZF RECHARGE =           0.0000
               GW ET =    37416272.0000                 GW ET =       7.4464E-03
     SURFACE LEAKAGE =           0.0000       SURFACE LEAKAGE =           0.0000

           TOTAL OUT =   909989120.0000             TOTAL OUT =          30.5245

            IN - OUT =       71360.0000              IN - OUT =       4.0607E-03

 PERCENT DISCREPANCY =           0.01     PERCENT DISCREPANCY =           0.01






         TIME SUMMARY AT END OF TIME STEP   10 IN STRESS PERIOD   12
                    SECONDS     MINUTES      HOURS       DAYS        YEARS
                    -----------------------------------------------------------
   TIME STEP LENGTH  87600.      1460.0      24.333      1.0139     2.77588E-03
 STRESS PERIOD TIME 8.76000E+05  14600.      243.33      10.139     2.77588E-02
         TOTAL TIME 2.97840E+07 4.96400E+05  8273.3      344.72     0.94380    
1
 
 SOLVING FOR HEAD 
                                                   Max.-Head-Change                         Max.-Flux-Residual
  Residual-Control   Outer-Iter.   Inner-Iter.     Column Row Layer    Maximum-Head-Change  Column Row Layer    Maximum-Flux-Residual          L2-NORM 
          0                 1           2             3   13     1       0.8181383551E-02       3   13    1         0.4328710481E+00      0.1823064033E+01
          0                 2           2             8    2     1       0.2609159082E-02       8    2    1         0.6774393127E-01      0.4381343298E+00
          0                 3           2             8    2     1       0.1173040811E-02       8    2    1         0.3045675639E-01      0.1589078561E+00
          0                 4           2             8    2     1       0.5273814706E-03       8    2    1         0.1369292016E-01      0.6837921561E-01
          0                 5           2             8    2     1       0.2371023119E-03       8    2    1         0.6156128512E-02      0.3043389738E-01
          0                 6           1             8    2     1       0.1065972207E-03       8    2    1         0.2767696418E-02      0.1361821905E-01
          0                 7           1             8    2     1       0.4792422946E-04       8    2    1         0.1244309435E-02      0.6098962584E-02
          0                 8           1             8    2     1       0.2154584634E-04       8    2    1         0.5594193724E-03      0.2731920256E-02
          0                 9           1             8    2     1       0.9686594617E-05       8    2    1         0.2515045023E-03      0.1223797424E-02

    ------------------------------------------------
       NWT REQUIRED            9 OUTER ITERATIONS 
       AND A TOTAL OF         14 INNER ITERATIONS.
    ------------------------------------------------

 NO OUTPUT CONTROL FOR STRESS PERIOD   12   TIME STEP   11
 
 SOLVING FOR HEAD 
                                                   Max.-Head-Change                         Max.-Flux-Residual
  Residual-Control   Outer-Iter.   Inner-Iter.     Column Row Layer    Maximum-Head-Change  Column Row Layer    Maximum-Flux-Residual          L2-NORM 
          0                 1           2             3   13     1       0.8061974934E-02       3   13    1         0.4264891333E+00      0.1821390235E+01
          0                 2           2             8    2     1       0.2608660751E-02       8    2    1         0.6773109960E-01      0.4379547157E+00
          0                 3           2             8    2     1       0.1172814512E-02       8    2    1         0.3045092867E-01      0.1588316509E+00
          0                 4           2             8    2     1       0.5272787197E-03       8    2    1         0.1369027379E-01      0.6834312825E-01
          0                 5           2             8    2     1       0.2370556643E-03       8    2    1         0.6154926956E-02      0.3041750743E-01
          0                 6           1             8    2     1       0.1065760460E-03       8    2    1         0.2767150938E-02      0.1361083891E-01
          0                 7           1             8    2     1       0.4791461920E-04       8    2    1         0.1244061836E-02      0.6095642799E-02
          0                 8           1             8    2     1       0.2154148478E-04       8    2    1         0.5593069944E-03      0.2730427491E-02
          0                 9           1             8    2     1       0.9684615863E-05       8    2    1         0.2514535082E-03      0.1223135550E-02

    ------------------------------------------------
       NWT REQUIRED            9 OUTER ITERATIONS 
       AND A TOTAL OF         14 INNER ITERATIONS.
    ------------------------------------------------

 NO OUTPUT CONTROL FOR STRESS PERIOD   12   TIME STEP   12
 
 SOLVING FOR HEAD 
                                                   Max.-Head-Change                         Max.-Flux-Residual
  Residual-Control   Outer-Iter.   Inner-Iter.     Column Row Layer    Maximum-Head-Change  Column Row Layer    Maximum-Flux-Residual          L2-NORM 
          0                 1           2             3   13     1       0.7945871483E-02       3   13    1         0.4202841647E+00      0.1819900861E+01
          0                 2           2             8    2     1       0.2608175021E-02       8    2    1         0.6771859593E-01      0.4377919716E+00
          0                 3           2             8    2     1       0.1172593860E-02       8    2    1         0.3044524794E-01      0.1587574752E+00
          0                 4           2             8    2     1       0.5271784997E-03       8    2    1         0.1368769329E-01      0.6830757910E-01
          0                 5           2             8    2     1       0.2370101510E-03       8    2    1         0.6153754924E-02      0.3040132690E-01
          0                 6           1             8    2     1       0.1065553799E-03       8    2    1         0.2766618694E-02      0.1360355087E-01
          0                 7           1             8    2     1       0.4790523641E-04       8    2    1         0.1243820165E-02      0.6092365417E-02
          0                 8           1             8    2     1       0.2153722576E-04       8    2    1         0.5591972799E-03      0.2728951357E-02
          0                 9           1             8    2     1       0.9682682630E-05       8    2    1         0.2514037047E-03      0.1222470960E-02

    ------------------------------------------------
       NWT REQUIRED            9 OUTER ITERATIONS 
       AND A TOTAL OF         14 INNER ITERATIONS.
    ------------------------------------------------

 NO OUTPUT CONTROL FOR STRESS PERIOD   12   TIME STEP   13
 
 SOLVING FOR HEAD 
                                                   Max.-Head-Change                         Max.-Flux-Residual
  Residual-Control   Outer-Iter.   Inner-Iter.     Column Row Layer    Maximum-Head-Change  Column Row Layer    Maximum-Flux-Residual          L2-NORM 
          0                 1           2             3   13     1       0.7832915587E-02       3   13    1         0.4142476696E+00      0.1818414125E+01
          0                 2           2             8    2     1       0.2607662782E-02       8    2    1         0.6770540231E-01      0.4376105982E+00
          0                 3           2             8    2     1       0.1172361327E-02       8    2    1         0.3043925797E-01      0.1586806656E+00
          0                 4           2             8    2     1       0.5270729542E-03       8    2    1         0.1368497418E-01      0.6827164355E-01
          0                 5           2             8    2     1       0.2369622508E-03       8    2    1         0.6152520766E-02      0.3038504815E-01
          0                 6           1             8    2     1       0.1065336439E-03       8    2    1         0.2766058603E-02      0.1359622261E-01
          0                 7           1             8    2     1       0.4789537440E-04       8    2    1         0.1243566014E-02      0.6089070402E-02
          0                 8           1             8    2     1       0.2153275165E-04       8    2    1         0.5590819680E-03      0.2727470180E-02
          0                 9           1             8    2     1       0.9680653104E-05       8    2    1         0.2513513919E-03      0.1221799158E-02

    ------------------------------------------------
       NWT REQUIRED            9 OUTER ITERATIONS 
       AND A TOTAL OF         14 INNER ITERATIONS.
    ------------------------------------------------

 NO OUTPUT CONTROL FOR STRESS PERIOD   12   TIME STEP   14
 
 SOLVING FOR HEAD 
                                                   Max.-Head-Change                         Max.-Flux-Residual
  Residual-Control   Outer-Iter.   Inner-Iter.     Column Row Layer    Maximum-Head-Change  Column Row Layer    Maximum-Flux-Residual          L2-NORM 
          0                 1           2             3   13     1       0.7723227867E-02       3   13    1         0.4083863257E+00      0.1816900644E+01
          0                 2           2             8    2     1       0.2607163314E-02       8    2    1         0.6769254020E-01      0.4374367224E+00
          0                 3           2             8    2     1       0.1172134536E-02       8    2    1         0.3043341706E-01      0.1586047002E+00
          0                 4           2             8    2     1       0.5269699906E-03       8    2    1         0.1368232209E-01      0.6823565098E-01
          0                 5           2             8    2     1       0.2369155116E-03       8    2    1         0.6151316744E-02      0.3036870656E-01
          0                 6           1             8    2     1       0.1065124300E-03       8    2    1         0.2765512062E-02      0.1358886511E-01
          0                 7           1             8    2     1       0.4788574688E-04       8    2    1         0.1243317954E-02      0.6085761764E-02
          0                 8           1             8    2     1       0.2152838321E-04       8    2    1         0.5589693982E-03      0.2725983004E-02
          0                 9           1             8    2     1       0.9678671099E-05       8    2    1         0.2513003135E-03      0.1221136659E-02

    ------------------------------------------------
       NWT REQUIRED            9 OUTER ITERATIONS 
       AND A TOTAL OF         14 INNER ITERATIONS.
    ------------------------------------------------

 OUTPUT CONTROL FOR STRESS PERIOD   12   TIME STEP   15
    PRINT BUDGET
    PRINT HEAD FOR ALL LAYERS
    SAVE HEAD FOR ALL LAYERS
    SAVE BUDGET
 UBUDSV SAVING "         STORAGE" ON UNIT102 AT TIME STEP    15, STRESS PERIOD   12
 UBUDSV SAVING "   CONSTANT HEAD" ON UNIT102 AT TIME STEP    15, STRESS PERIOD   12
 UBUDSV SAVING "FLOW RIGHT FACE " ON UNIT102 AT TIME STEP    15, STRESS PERIOD   12
 UBUDSV SAVING "FLOW FRONT FACE " ON UNIT102 AT TIME STEP    15, STRESS PERIOD   12

  HEAD DEP BOUNDS   PERIOD   12   STEP    15
 BOUNDARY      1   LAYER   1   ROW    13   COL     1   RATE   -0.283545    
 BOUNDARY      2   LAYER   1   ROW    14   COL     9   RATE     1.02098    



 STREAM LISTING     PERIOD     12   STEP       15

 LAYER ROW COL. STREAM  RCH.  FLOW INTO     FLOW TO   FLOW OUT OF   OVRLND.     DIRECT     STREAM       STREAM     STREAM     STREAM   STREAMBED  STREAMBED
                SEG.NO.  NO.  STRM. RCH.    AQUIFER    STRM. RCH.    RUNOFF     PRECIP       ET          HEAD       DEPTH      WIDTH   CONDCTNC.   GRADIENT

   1    1    1     1     1    3.3000E+00  8.1313E-10   3.3000E+00  0.000E+00  0.000E+00  0.000E+00  1.09370E+03  6.519E-01  4.948E+00  2.227E-10  1.217E+00
   1    2    2     1     2    3.3000E+00  1.2614E-09   3.3000E+00  0.000E+00  0.000E+00  0.000E+00  1.08871E+03  6.503E-01  4.937E+00  3.456E-10  1.217E+00
   1    3    3     1     3    3.3000E+00  1.0824E-09   3.3000E+00  0.000E+00  0.000E+00  0.000E+00  1.08307E+03  6.509E-01  4.941E+00  2.965E-10  1.217E+00
   1    3    4     1     4    3.3000E+00  1.0017E-09   3.3000E+00  0.000E+00  0.000E+00  0.000E+00  1.07806E+03  6.512E-01  4.943E+00  2.743E-10  1.217E+00
   1    4    5     2     1    1.3000E+00  2.4904E-01   1.0510E+00  0.000E+00  0.000E+00  0.000E+00  1.07213E+03  1.929E-01  1.200E+01  7.800E-02  1.064E+00
   1    5    6     2     2    1.0510E+00  1.9022E-01   8.6073E-01  0.000E+00  0.000E+00  0.000E+00  1.06668E+03  1.704E-01  1.200E+01  6.000E-02  1.057E+00
   1    6    6     2     3    8.6073E-01  1.8895E-01   6.7178E-01  0.000E+00  0.000E+00  0.000E+00  1.06194E+03  1.492E-01  1.200E+01  6.000E-02  1.050E+00
   1    7    6     2     4    6.7178E-01  1.8756E-01   4.8422E-01  0.000E+00  0.000E+00  0.000E+00  1.05720E+03  1.260E-01  1.200E+01  6.000E-02  1.042E+00
   1    8    6     2     5    4.8422E-01  1.8598E-01   2.9824E-01  0.000E+00  0.000E+00  0.000E+00  1.05246E+03  9.968E-02  1.200E+01  6.000E-02  1.033E+00
   1    3    5     3     1    2.0000E+00  2.8252E-01   1.7175E+00  0.000E+00  0.000E+00  0.000E+00  1.07555E+03  1.909E+00  9.636E+00  7.227E-02  1.955E+00
   1    3    6     3     2    1.7175E+00  2.4905E-01   1.4684E+00  0.000E+00  0.000E+00  0.000E+00  1.07264E+03  1.727E+00  8.909E+00  6.682E-02  1.864E+00
   1    3    7     3     3    1.4684E+00  1.9718E-01   1.2712E+00  0.000E+00  0.000E+00  0.000E+00  1.06987E+03  1.555E+00  8.218E+00  5.547E-02  1.777E+00
   1    4    8     3     4    1.2712E+00  2.2567E-01   1.0456E+00  0.000E+00  0.000E+00  0.000E+00  1.06682E+03  1.364E+00  7.455E+00  6.709E-02  1.682E+00
   1    5    8     3     5    1.0456E+00  1.5790E-01   8.8768E-01  0.000E+00  0.000E+00  0.000E+00  1.06362E+03  1.164E+00  6.655E+00  4.991E-02  1.582E+00
   1    6    8     3     6    8.8768E-01  5.5980E-02   8.3170E-01  0.000E+00  0.000E+00  0.000E+00  1.06158E+03  1.036E+00  6.145E+00  1.844E-02  1.518E+00
   1    5   10     4     1    1.0000E+01  9.0919E-02   9.9091E+00  0.000E+00  0.000E+00  0.000E+00  1.07836E+03  6.368E-01  1.000E+01  2.500E-02  1.212E+00
   1    5    9     4     2    9.9091E+00  1.8158E-01   9.7275E+00  0.000E+00  0.000E+00  0.000E+00  1.07154E+03  6.315E-01  1.000E+01  5.000E-02  1.211E+00
   1    6    8     4     3    9.7275E+00  1.2689E-01   9.6006E+00  0.000E+00  0.000E+00  0.000E+00  1.06381E+03  6.256E-01  1.000E+01  3.500E-02  1.209E+00
   1    6    8     5     1    1.0432E+01  2.2686E-09   1.0432E+01  0.000E+00  0.000E+00  0.000E+00  1.05868E+03  6.790E-01  1.542E+01  6.166E-10  1.226E+00
   1    7    7     5     2    1.0432E+01  2.8306E-09   1.0432E+01  0.000E+00  0.000E+00  0.000E+00  1.05418E+03  6.784E-01  1.539E+01  7.695E-10  1.226E+00
   1    8    7     5     3    1.0432E+01  1.9868E-09   1.0432E+01  0.000E+00  0.000E+00  0.000E+00  1.04993E+03  6.794E-01  1.543E+01  5.400E-10  1.226E+00
   1    8    6     5     4    1.0432E+01  1.4217E-09   1.0432E+01  0.000E+00  0.000E+00  0.000E+00  1.04693E+03  6.800E-01  1.545E+01  3.863E-10  1.227E+00
   1    9    6     6     1    1.0731E+01  2.2383E-01   1.0507E+01  0.000E+00  0.000E+00  0.000E+00  1.04346E+03  7.305E-01  1.200E+01  6.000E-02  1.243E+00
   1   10    7     6     2    1.0507E+01  2.2327E-01   1.0283E+01  0.000E+00  0.000E+00  0.000E+00  1.03890E+03  7.212E-01  1.200E+01  6.000E-02  1.240E+00
   1   11    7     6     3    1.0283E+01  2.2271E-01   1.0061E+01  0.000E+00  0.000E+00  0.000E+00  1.03435E+03  7.119E-01  1.200E+01  6.000E-02  1.237E+00
   1   12    7     6     4    1.0061E+01  2.2215E-01   9.8386E+00  0.000E+00  0.000E+00  0.000E+00  1.02979E+03  7.025E-01  1.200E+01  6.000E-02  1.234E+00
   1   13    7     6     5    9.8386E+00  8.8702E-02   9.7499E+00  0.000E+00  0.000E+00  0.000E+00  1.02660E+03  6.959E-01  1.200E+01  2.400E-02  1.232E+00
   1   14    9     7     1    1.5000E+02  2.9539E-08   1.5000E+02  0.000E+00  0.000E+00  0.000E+00  1.03986E+03  2.283E+00  5.528E+01  5.591E-09  1.761E+00
   1   13    8     7     2    1.5000E+02  3.2486E-14   1.5000E+02  0.000E+00  0.000E+00  0.000E+00  1.03478E+03  2.283E+00  5.527E+01  6.150E-15  1.761E+00
   1   13    7     7     3    1.5000E+02  2.9539E-08   1.5000E+02  0.000E+00  0.000E+00  0.000E+00  1.02970E+03  2.283E+00  5.528E+01  5.591E-09  1.761E+00
   1   13    6     8     1    1.5975E+02  2.5076E-32   1.5975E+02  0.000E+00  0.000E+00  0.000E+00  1.02476E+03  2.884E+00  4.182E+01  4.262E-33  1.961E+00
   1   13    5     8     2    1.5975E+02  2.4966E-12   1.5975E+02  0.000E+00  0.000E+00  0.000E+00  1.01850E+03  2.876E+00  4.170E+01  4.249E-13  1.959E+00
   1   13    4     8     3    1.5975E+02  1.9491E-08   1.5975E+02  0.000E+00  0.000E+00  0.000E+00  1.01225E+03  2.878E+00  4.172E+01  4.252E-09  1.528E+00
   1   13    3     8     4    1.5975E+02  4.2143E-06   1.5975E+02  0.000E+00  0.000E+00  0.000E+00  1.00601E+03  2.883E+00  4.180E+01  4.260E-06  3.298E-01
   1   13    2     8     5    1.5975E+02 -1.4004E+00   1.6115E+02  0.000E+00  0.000E+00  0.000E+00  9.99764E+02  2.889E+00  4.189E+01  4.269E+00 -1.094E-01
   1   13    1     8     6    1.6115E+02 -1.7664E+00   1.6292E+02  0.000E+00  0.000E+00  0.000E+00  9.94775E+02  2.900E+00  4.204E+01  2.571E+00 -2.291E-01
   1    6    8     9     1    0.0000E+00  0.0000E+00   0.0000E+00  0.000E+00  0.000E+00  0.000E+00  1.07850E+03  0.000E+00  4.000E+00  0.000E+00  1.000E+00



 UBDSV3 SAVING "     NETRECHARGE" ON UNIT 100 AT TIME STEP    15, STRESS PERIOD  12
 UBDSV3 SAVING "    NETDISCHARGE" ON UNIT 101 AT TIME STEP    15, STRESS PERIOD  12
 UBDSV3 SAVING "           GW ET" ON UNIT  61 AT TIME STEP    15, STRESS PERIOD  12
 UBDSV3 SAVING "    UZF RECHARGE" ON UNIT  61 AT TIME STEP    15, STRESS PERIOD  12
 UBDSV3 SAVING " SURFACE LEAKAGE" ON UNIT  61 AT TIME STEP    15, STRESS PERIOD  12
 UBDSV3 SAVING "       HORT+DUNN" ON UNIT  61 AT TIME STEP    15, STRESS PERIOD  12
 UBDSV3 SAVING "  STORAGE CHANGE" ON UNIT  61 AT TIME STEP    15, STRESS PERIOD  12


UNSATURATED ZONE PACKAGE VOLUMETRIC BUDGET FOR  TIME STEP    15 STRESS PERIOD   12
  ------------------------------------------------------------------------------



     CUMULATIVE VOLUMES      L**3       RATES FOR THIS TIME STEP      L**3/T
     ------------------                 ------------------------

           IN:                                      IN:
           ---                                      ---
        INFILTRATION =    55659708.1201          INFILTRATION =           0.8475

          OUT:                                     OUT:
          ----                                     ----
              UZF ET =   563880662.8937                UZF ET =           0.0092
        UZF RECHARGE =   757123238.3175          UZF RECHARGE =          25.9434

            IN - OUT = -1265344193.0910              IN - OUT =         -25.1051

          STORAGE:                                 STORAGE:
          --------                                 --------
      STORAGE CHANGE = -1265336405.4748        STORAGE CHANGE =         -25.1051

 PERCENT DISCREPANCY IS DIFFERENCE BETWEEN IN-OUT MINUS CHANGE IN STORAGE
 DIVIDED BY THE AVERAGE OF IN AND OUT TIMES 100

 PERCENT DISCREPANCY =          -0.00     PERCENT DISCREPANCY =           0.00






1
              HEAD IN LAYER   1 AT END OF TIME STEP    15 IN STRESS PERIOD   12
  -----------------------------------------------------------------------------

           1       2       3       4       5       6       7       8       9      10
 ...................................................................................
   1  1012.52 1012.34 6999.00 6999.00 6999.00 6999.00 6999.00 6999.00 6999.00 6999.00
   2  1014.30 1012.33 1012.34 6999.00 6999.00 1014.99 1015.15 1015.09 6999.00 6999.00
   3  6999.00 1012.87 1012.48 1012.62 1013.68 1014.58 1015.15 1015.08 6999.00 6999.00
   4  1014.26 1013.44 1012.75 1012.57 1012.80 1012.92 1013.58 1014.76 1014.57 6999.00
   5  1014.22 1013.47 1012.77 1012.38 1012.46 1012.61 1012.69 1013.03 1013.50 1013.82
   6  1014.12 1013.34 1012.61 1012.16 1012.19 1012.36 1012.43 1012.71 1013.50 1014.80
   7  1014.00 1013.08 1012.35 1011.89 1011.92 1012.09 1012.17 1012.42 1013.65 6999.00
   8  6999.00 1012.63 1011.99 1011.56 1011.61 1011.81 1011.91 1012.63 1013.92 6999.00
   9  6999.00 1011.90 1011.42 1011.11 1011.21 1011.50 1011.70 1012.64 1014.05 6999.00
  10  6999.00 1010.76 1010.55 1010.51 1010.75 1011.14 1011.61 1012.65 1014.16 1015.06
  11  6999.00 1008.72 1008.98 1009.67 1010.21 1010.84 1011.54 1012.75 1014.41 6999.00
  12  1001.04 1004.70 1006.89 1008.50 1009.62 1010.62 1011.56 1013.09 1015.21 6999.00
  13   995.46 1000.09 1005.02 1007.67 1009.25 1010.57 1011.92 1013.54 1016.06 6999.00
  14  6999.00 1005.23 1006.70 1008.68 1010.24 1011.61 1013.17 1015.53 1018.13 6999.00
  15  6999.00 6999.00 1009.48 1010.47 1011.54 1012.32 6999.00 6999.00 6999.00 6999.00

 HEAD WILL BE SAVED ON UNIT   62 AT END OF TIME STEP   15, STRESS PERIOD   12
1
  VOLUMETRIC BUDGET FOR ENTIRE MODEL AT END OF TIME STEP   15, STRESS PERIOD  12
  ------------------------------------------------------------------------------

     CUMULATIVE VOLUMES      L**3       RATES FOR THIS TIME STEP      L**3/T
     ------------------                 ------------------------

           IN:                                      IN:
           ---                                      ---
             STORAGE =    16149497.0000               STORAGE =           0.0000
       CONSTANT HEAD =           0.0000         CONSTANT HEAD =           0.0000
               WELLS =           0.0000                 WELLS =           0.0000
     HEAD DEP BOUNDS =    31670954.0000       HEAD DEP BOUNDS =           1.0210
      STREAM LEAKAGE =   118484552.0000        STREAM LEAKAGE =           3.5501
        UZF RECHARGE =   757123392.0000          UZF RECHARGE =          25.9434
               GW ET =           0.0000                 GW ET =           0.0000
     SURFACE LEAKAGE =           0.0000       SURFACE LEAKAGE =           0.0000

            TOTAL IN =   923428416.0000              TOTAL IN =          30.5145

          OUT:                                     OUT:
          ----                                     ----
             STORAGE =   809340736.0000               STORAGE =          27.0526
       CONSTANT HEAD =           0.0000         CONSTANT HEAD =           0.0000
               WELLS =     1059111.1250                 WELLS =           0.0000
     HEAD DEP BOUNDS =     8567146.0000       HEAD DEP BOUNDS =           0.2835
      STREAM LEAKAGE =    66968664.0000        STREAM LEAKAGE =           3.1668
        UZF RECHARGE =           0.0000          UZF RECHARGE =           0.0000
               GW ET =    37419532.0000                 GW ET =       7.4429E-03
     SURFACE LEAKAGE =           0.0000       SURFACE LEAKAGE =           0.0000

           TOTAL OUT =   923355200.0000             TOTAL OUT =          30.5104

            IN - OUT =       73216.0000              IN - OUT =       4.0550E-03

 PERCENT DISCREPANCY =           0.01     PERCENT DISCREPANCY =           0.01






         TIME SUMMARY AT END OF TIME STEP   15 IN STRESS PERIOD   12
                    SECONDS     MINUTES      HOURS       DAYS        YEARS
                    -----------------------------------------------------------
   TIME STEP LENGTH  87600.      1460.0      24.333      1.0139     2.77588E-03
 STRESS PERIOD TIME 1.31400E+06  21900.      365.00      15.208     4.16381E-02
         TOTAL TIME 3.02220E+07 5.03700E+05  8395.0      349.79     0.95768    
1
 
 SOLVING FOR HEAD 
                                                   Max.-Head-Change                         Max.-Flux-Residual
  Residual-Control   Outer-Iter.   Inner-Iter.     Column Row Layer    Maximum-Head-Change  Column Row Layer    Maximum-Flux-Residual          L2-NORM 
          0                 1           2             3   13     1       0.7624191419E-02       3   13    1         0.4030988739E+00      0.1815702678E+01
          0                 2           2             8    2     1       0.2606637444E-02       8    2    1         0.6767899140E-01      0.4373025483E+00
          0                 3           2             8    2     1       0.1171895901E-02       8    2    1         0.3042726809E-01      0.1585302470E+00
          0                 4           2             8    2     1       0.5268617134E-03       8    2    1         0.1367953180E-01      0.6819988928E-01
          0                 5           2             8    2     1       0.2368663884E-03       8    2    1         0.6150050723E-02      0.3035244546E-01
          0                 6           1             8    2     1       0.1064901463E-03       8    2    1         0.2764937707E-02      0.1358154234E-01
          0                 7           1             8    2     1       0.4787563989E-04       8    2    1         0.1243057421E-02      0.6082469971E-02
          0                 8           1             8    2     1       0.2152379930E-04       8    2    1         0.5588512288E-03      0.2724503465E-02
          0                 9           1             8    2     1       0.9676592426E-05       8    2    1         0.2512467231E-03      0.1220465941E-02

    ------------------------------------------------
       NWT REQUIRED            9 OUTER ITERATIONS 
       AND A TOTAL OF         14 INNER ITERATIONS.
    ------------------------------------------------

 NO OUTPUT CONTROL FOR STRESS PERIOD   12   TIME STEP   16
 
 SOLVING FOR HEAD 
                                                   Max.-Head-Change                         Max.-Flux-Residual
  Residual-Control   Outer-Iter.   Inner-Iter.     Column Row Layer    Maximum-Head-Change  Column Row Layer    Maximum-Flux-Residual          L2-NORM 
          0                 1           2             3   13     1       0.7512341501E-02       3   13    1         0.3971265589E+00      0.1814182140E+01
          0                 2           2             8    2     1       0.2606124507E-02       8    2    1         0.6766577786E-01      0.4370838842E+00
          0                 3           2             8    2     1       0.1171663091E-02       8    2    1         0.3042127013E-01      0.1584530720E+00
          0                 4           2             8    2     1       0.5267560602E-03       8    2    1         0.1367680954E-01      0.6816397515E-01
          0                 5           2             8    2     1       0.2368184471E-03       8    2    1         0.6148815337E-02      0.3033617217E-01
          0                 6           1             8    2     1       0.1064683953E-03       8    2    1         0.2764377152E-02      0.1357421828E-01
          0                 7           1             8    2     1       0.4786577263E-04       8    2    1         0.1242803100E-02      0.6079177292E-02
          0                 8           1             8    2     1       0.2151932357E-04       8    2    1         0.5587358574E-03      0.2723023414E-02
          0                 9           1             8    2     1       0.9674562400E-05       8    2    1         0.2511943908E-03      0.1219806635E-02

    ------------------------------------------------
       NWT REQUIRED            9 OUTER ITERATIONS 
       AND A TOTAL OF         14 INNER ITERATIONS.
    ------------------------------------------------

 NO OUTPUT CONTROL FOR STRESS PERIOD   12   TIME STEP   17
 
 SOLVING FOR HEAD 
                                                   Max.-Head-Change                         Max.-Flux-Residual
  Residual-Control   Outer-Iter.   Inner-Iter.     Column Row Layer    Maximum-Head-Change  Column Row Layer    Maximum-Flux-Residual          L2-NORM 
          0                 1           2             3   13     1       0.7411142463E-02       3   13    1         0.3917192076E+00      0.1813004823E+01
          0                 2           2             8    2     1       0.2605585238E-02       8    2    1         0.6765188034E-01      0.4368842889E+00
          0                 3           2             8    2     1       0.1171418450E-02       8    2    1         0.3041496484E-01      0.1583678093E+00
          0                 4           2             8    2     1       0.5266450910E-03       8    2    1         0.1367394918E-01      0.6812774971E-01
          0                 5           2             8    2     1       0.2367681174E-03       8    2    1         0.6147517907E-02      0.3031980214E-01
          0                 6           1             8    2     1       0.1064455709E-03       8    2    1         0.2763788718E-02      0.1356684994E-01
          0                 7           1             8    2     1       0.4785542316E-04       8    2    1         0.1242536253E-02      0.6075866173E-02
          0                 8           1             8    2     1       0.2151463111E-04       8    2    1         0.5586148572E-03      0.2721534141E-02
          0                 9           1             8    2     1       0.9672434955E-05       8    2    1         0.2511395291E-03      0.1219131341E-02

    ------------------------------------------------
       NWT REQUIRED            9 OUTER ITERATIONS 
       AND A TOTAL OF         14 INNER ITERATIONS.
    ------------------------------------------------

 NO OUTPUT CONTROL FOR STRESS PERIOD   12   TIME STEP   18
 
 SOLVING FOR HEAD 
                                                   Max.-Head-Change                         Max.-Flux-Residual
  Residual-Control   Outer-Iter.   Inner-Iter.     Column Row Layer    Maximum-Head-Change  Column Row Layer    Maximum-Flux-Residual          L2-NORM 
          0                 1           2             3   13     1       0.7312609477E-02       3   13    1         0.3864547704E+00      0.1811741594E+01
          0                 2           2             8    2     1       0.2605058952E-02       8    2    1         0.6763831985E-01      0.4367526136E+00
          0                 3           2             8    2     1       0.1171179645E-02       8    2    1         0.3040881109E-01      0.1583009311E+00
          0                 4           2             8    2     1       0.5265367459E-03       8    2    1         0.1367115696E-01      0.6809208103E-01
          0                 5           2             8    2     1       0.2367189677E-03       8    2    1         0.6146251115E-02      0.3030355458E-01
          0                 6           1             8    2     1       0.1064232770E-03       8    2    1         0.2763214060E-02      0.1355953540E-01
          0                 7           1             8    2     1       0.4784531205E-04       8    2    1         0.1242275603E-02      0.6072576258E-02
          0                 8           1             8    2     1       0.2151004620E-04       8    2    1         0.5584966502E-03      0.2720059615E-02
          0                 9           1             8    2     1       0.9670356157E-05       8    2    1         0.2510859259E-03      0.1218475172E-02

    ------------------------------------------------
       NWT REQUIRED            9 OUTER ITERATIONS 
       AND A TOTAL OF         14 INNER ITERATIONS.
    ------------------------------------------------

 NO OUTPUT CONTROL FOR STRESS PERIOD   12   TIME STEP   19
 
 SOLVING FOR HEAD 
                                                   Max.-Head-Change                         Max.-Flux-Residual
  Residual-Control   Outer-Iter.   Inner-Iter.     Column Row Layer    Maximum-Head-Change  Column Row Layer    Maximum-Flux-Residual          L2-NORM 
          0                 1           2             3   13     1       0.7216969988E-02       3   13    1         0.3813453347E+00      0.1810608647E+01
          0                 2           2             8    2     1       0.2604506492E-02       8    2    1         0.6762407809E-01      0.4365945713E+00
          0                 3           2             8    2     1       0.1170929110E-02       8    2    1         0.3040235199E-01      0.1582253996E+00
          0                 4           2             8    2     1       0.5264231430E-03       8    2    1         0.1366822787E-01      0.6805620957E-01
          0                 5           2             8    2     1       0.2366674611E-03       8    2    1         0.6144922976E-02      0.3028726918E-01
          0                 6           1             8    2     1       0.1063999272E-03       8    2    1         0.2762611907E-02      0.1355220386E-01
          0                 7           1             8    2     1       0.4783472760E-04       8    2    1         0.1242002624E-02      0.6069280223E-02
          0                 8           1             8    2     1       0.2150524844E-04       8    2    1         0.5583729088E-03      0.2718575120E-02
          0                 9           1             8    2     1       0.9668182067E-05       8    2    1         0.2510298431E-03      0.1217801525E-02

    ------------------------------------------------
       NWT REQUIRED            9 OUTER ITERATIONS 
       AND A TOTAL OF         14 INNER ITERATIONS.
    ------------------------------------------------

 NO OUTPUT CONTROL FOR STRESS PERIOD   12   TIME STEP   20
 
 SOLVING FOR HEAD 
                                                   Max.-Head-Change                         Max.-Flux-Residual
  Residual-Control   Outer-Iter.   Inner-Iter.     Column Row Layer    Maximum-Head-Change  Column Row Layer    Maximum-Flux-Residual          L2-NORM 
          0                 1           2             3   13     1       0.7123739090E-02       3   13    1         0.3763649314E+00      0.1809594052E+01
          0                 2           2             8    2     1       0.2603947596E-02       8    2    1         0.6760966837E-01      0.4364453961E+00
          0                 3           2             8    2     1       0.1170675699E-02       8    2    1         0.3039581784E-01      0.1581513437E+00
          0                 4           2             8    2     1       0.5263082555E-03       8    2    1         0.1366526526E-01      0.6802058809E-01
          0                 5           2             8    2     1       0.2366153803E-03       8    2    1         0.6143579856E-02      0.3027099941E-01
          0                 6           1             8    2     1       0.1063763205E-03       8    2    1         0.2762003061E-02      0.1354487949E-01
          0                 7           1             8    2     1       0.4782402848E-04       8    2    1         0.1241726660E-02      0.6065987497E-02
          0                 8           1             8    2     1       0.2150040004E-04       8    2    1         0.5582478417E-03      0.2717095173E-02
          0                 9           1             8    2     1       0.9665984841E-05       8    2    1         0.2509731669E-03      0.1217136361E-02

    ------------------------------------------------
       NWT REQUIRED            9 OUTER ITERATIONS 
       AND A TOTAL OF         14 INNER ITERATIONS.
    ------------------------------------------------

 NO OUTPUT CONTROL FOR STRESS PERIOD   12   TIME STEP   21
 
 SOLVING FOR HEAD 
                                                   Max.-Head-Change                         Max.-Flux-Residual
  Residual-Control   Outer-Iter.   Inner-Iter.     Column Row Layer    Maximum-Head-Change  Column Row Layer    Maximum-Flux-Residual          L2-NORM 
          0                 1           2             3   13     1       0.7033061252E-02       3   13    1         0.3715212267E+00      0.1808551644E+01
          0                 2           2             8    2     1       0.2603401917E-02       8    2    1         0.6759560182E-01      0.4362454183E+00
          0                 3           2             8    2     1       0.1170428623E-02       8    2    1         0.3038943798E-01      0.1580651458E+00
          0                 4           2             8    2     1       0.5261966085E-03       8    2    1         0.1366237763E-01      0.6798447150E-01
          0                 5           2             8    2     1       0.2365650305E-03       8    2    1         0.6142275482E-02      0.3025486860E-01
          0                 6           1             8    2     1       0.1063536591E-03       8    2    1         0.2761415030E-02      0.1353765179E-01
          0                 7           1             8    2     1       0.4781384908E-04       8    2    1         0.1241462089E-02      0.6062754590E-02
          0                 8           1             8    2     1       0.2149583676E-04       8    2    1         0.5581290409E-03      0.2715652210E-02
          0                 9           1             8    2     1       0.9663943435E-05       8    2    1         0.2509199277E-03      0.1216489644E-02

    ------------------------------------------------
       NWT REQUIRED            9 OUTER ITERATIONS 
       AND A TOTAL OF         14 INNER ITERATIONS.
    ------------------------------------------------

 NO OUTPUT CONTROL FOR STRESS PERIOD   12   TIME STEP   22
 
 SOLVING FOR HEAD 
                                                   Max.-Head-Change                         Max.-Flux-Residual
  Residual-Control   Outer-Iter.   Inner-Iter.     Column Row Layer    Maximum-Head-Change  Column Row Layer    Maximum-Flux-Residual          L2-NORM 
          0                 1           2             3   13     1       0.6944931618E-02       3   13    1         0.3668143374E+00      0.1807454219E+01
          0                 2           2             8    2     1       0.2602833908E-02       8    2    1         0.6758090675E-01      0.4361038255E+00
          0                 3           2             8    2     1       0.1170172134E-02       8    2    1         0.3038280233E-01      0.1579978520E+00
          0                 4           2             8    2     1       0.5260807907E-03       8    2    1         0.1365938125E-01      0.6794901041E-01
          0                 5           2             8    2     1       0.2365127340E-03       8    2    1         0.6140922472E-02      0.3023872431E-01
          0                 6           1             8    2     1       0.1063300450E-03       8    2    1         0.2760804089E-02      0.1353038709E-01
          0                 7           1             8    2     1       0.4780318685E-04       8    2    1         0.1241186233E-02      0.6059488667E-02
          0                 8           1             8    2     1       0.2149102288E-04       8    2    1         0.5580044878E-03      0.2714182145E-02
          0                 9           1             8    2     1       0.9661769595E-05       8    2    1         0.2508636889E-03      0.1215830910E-02

    ------------------------------------------------
       NWT REQUIRED            9 OUTER ITERATIONS 
       AND A TOTAL OF         14 INNER ITERATIONS.
    ------------------------------------------------

 NO OUTPUT CONTROL FOR STRESS PERIOD   12   TIME STEP   23
 
 SOLVING FOR HEAD 
                                                   Max.-Head-Change                         Max.-Flux-Residual
  Residual-Control   Outer-Iter.   Inner-Iter.     Column Row Layer    Maximum-Head-Change  Column Row Layer    Maximum-Flux-Residual          L2-NORM 
          0                 1           2             3   13     1       0.6858805070E-02       3   13    1         0.3622222661E+00      0.1806451914E+01
          0                 2           2             8    2     1       0.2602262258E-02       8    2    1         0.6756612967E-01      0.4359437658E+00
          0                 3           2             8    2     1       0.1169913751E-02       8    2    1         0.3037612293E-01      0.1579229976E+00
          0                 4           2             8    2     1       0.5259640061E-03       8    2    1         0.1365636220E-01      0.6791339104E-01
          0                 5           2             8    2     1       0.2364599514E-03       8    2    1         0.6139557929E-02      0.3022249562E-01
          0                 6           1             8    2     1       0.1063061902E-03       8    2    1         0.2760187371E-02      0.1352308570E-01
          0                 7           1             8    2     1       0.4779240619E-04       8    2    1         0.1240907513E-02      0.6056208920E-02
          0                 8           1             8    2     1       0.2148615071E-04       8    2    1         0.5578785259E-03      0.2712707835E-02
          0                 9           1             8    2     1       0.9659568242E-05       8    2    1         0.2508067686E-03      0.1215168663E-02

    ------------------------------------------------
       NWT REQUIRED            9 OUTER ITERATIONS 
       AND A TOTAL OF         14 INNER ITERATIONS.
    ------------------------------------------------

 NO OUTPUT CONTROL FOR STRESS PERIOD   12   TIME STEP   24
 
 SOLVING FOR HEAD 
                                                   Max.-Head-Change                         Max.-Flux-Residual
  Residual-Control   Outer-Iter.   Inner-Iter.     Column Row Layer    Maximum-Head-Change  Column Row Layer    Maximum-Flux-Residual          L2-NORM 
          0                 1           2             3   13     1       0.6775018461E-02       3   13    1         0.3577473562E+00      0.1805487561E+01
          0                 2           2             8    2     1       0.2601687121E-02       8    2    1         0.6755126046E-01      0.4357891990E+00
          0                 3           2             8    2     1       0.1169653832E-02       8    2    1         0.3036940298E-01      0.1578472947E+00
          0                 4           2             8    2     1       0.5258465467E-03       8    2    1         0.1365332532E-01      0.6787776960E-01
          0                 5           2             8    2     1       0.2364068728E-03       8    2    1         0.6138185550E-02      0.3020642788E-01
          0                 6           1             8    2     1       0.1062822054E-03       8    2    1         0.2759567206E-02      0.1351585594E-01
          0                 7           1             8    2     1       0.4778156825E-04       8    2    1         0.1240627272E-02      0.6052959364E-02
          0                 8           1             8    2     1       0.2148125366E-04       8    2    1         0.5577518956E-03      0.2711250949E-02
          0                 9           1             8    2     1       0.9657355385E-05       8    2    1         0.2507495500E-03      0.1214518579E-02

    ------------------------------------------------
       NWT REQUIRED            9 OUTER ITERATIONS 
       AND A TOTAL OF         14 INNER ITERATIONS.
    ------------------------------------------------

 NO OUTPUT CONTROL FOR STRESS PERIOD   12   TIME STEP   25
 
 SOLVING FOR HEAD 
                                                   Max.-Head-Change                         Max.-Flux-Residual
  Residual-Control   Outer-Iter.   Inner-Iter.     Column Row Layer    Maximum-Head-Change  Column Row Layer    Maximum-Flux-Residual          L2-NORM 
          0                 1           2             3   13     1       0.6693472724E-02       3   13    1         0.3533923927E+00      0.1804654753E+01
          0                 2           2             8    2     1       0.2601108358E-02       8    2    1         0.6753629862E-01      0.4356452999E+00
          0                 3           2             8    2     1       0.1169392252E-02       8    2    1         0.3036264057E-01      0.1577723809E+00
          0                 4           2             8    2     1       0.5257283269E-03       8    2    1         0.1365026897E-01      0.6784203615E-01
          0                 5           2             8    2     1       0.2363534453E-03       8    2    1         0.6136804250E-02      0.3019020899E-01
          0                 6           1             8    2     1       0.1062580610E-03       8    2    1         0.2758942963E-02      0.1350855786E-01
          0                 7           1             8    2     1       0.4777065753E-04       8    2    1         0.1240345171E-02      0.6049678683E-02
          0                 8           1             8    2     1       0.2147632297E-04       8    2    1         0.5576244165E-03      0.2709777457E-02
          0                 9           1             8    2     1       0.9655127771E-05       8    2    1         0.2506919495E-03      0.1213858536E-02

    ------------------------------------------------
       NWT REQUIRED            9 OUTER ITERATIONS 
       AND A TOTAL OF         14 INNER ITERATIONS.
    ------------------------------------------------

 NO OUTPUT CONTROL FOR STRESS PERIOD   12   TIME STEP   26
 
 SOLVING FOR HEAD 
                                                   Max.-Head-Change                         Max.-Flux-Residual
  Residual-Control   Outer-Iter.   Inner-Iter.     Column Row Layer    Maximum-Head-Change  Column Row Layer    Maximum-Flux-Residual          L2-NORM 
          0                 1           2             3   13     1       0.6614707951E-02       3   13    1         0.3491868594E+00      0.1803747555E+01
          0                 2           2             8    2     1       0.2600526047E-02       8    2    1         0.6752124397E-01      0.4354900277E+00
          0                 3           2             8    2     1       0.1169129092E-02       8    2    1         0.3035583680E-01      0.1576969290E+00
          0                 4           2             8    2     1       0.5256094025E-03       8    2    1         0.1364719420E-01      0.6780647675E-01
          0                 5           2             8    2     1       0.2362997043E-03       8    2    1         0.6135414745E-02      0.3017408536E-01
          0                 6           1             8    2     1       0.1062337766E-03       8    2    1         0.2758315061E-02      0.1350130416E-01
          0                 7           1             8    2     1       0.4775968441E-04       8    2    1         0.1240061441E-02      0.6046421367E-02
          0                 8           1             8    2     1       0.2147136515E-04       8    2    1         0.5574962120E-03      0.2708313860E-02
          0                 9           1             8    2     1       0.9652887651E-05       8    2    1         0.2506340189E-03      0.1213199175E-02

    ------------------------------------------------
       NWT REQUIRED            9 OUTER ITERATIONS 
       AND A TOTAL OF         14 INNER ITERATIONS.
    ------------------------------------------------

 NO OUTPUT CONTROL FOR STRESS PERIOD   12   TIME STEP   27
 
 SOLVING FOR HEAD 
                                                   Max.-Head-Change                         Max.-Flux-Residual
  Residual-Control   Outer-Iter.   Inner-Iter.     Column Row Layer    Maximum-Head-Change  Column Row Layer    Maximum-Flux-Residual          L2-NORM 
          0                 1           2             3   13     1       0.6536683906E-02       3   13    1         0.3450204832E+00      0.1802973397E+01
          0                 2           2             8    2     1       0.2599959773E-02       8    2    1         0.6750660668E-01      0.4353453379E+00
          0                 3           2             8    2     1       0.1168873121E-02       8    2    1         0.3034922014E-01      0.1576222491E+00
          0                 4           2             8    2     1       0.5254937018E-03       8    2    1         0.1364420332E-01      0.6777086893E-01
          0                 5           2             8    2     1       0.2362474088E-03       8    2    1         0.6134062852E-02      0.3015792967E-01
          0                 6           1             8    2     1       0.1062101404E-03       8    2    1         0.2757704022E-02      0.1349403565E-01
          0                 7           1             8    2     1       0.4774900204E-04       8    2    1         0.1239785272E-02      0.6043154362E-02
          0                 8           1             8    2     1       0.2146653738E-04       8    2    1         0.5573713963E-03      0.2706846851E-02
          0                 9           1             8    2     1       0.9650705808E-05       8    2    1         0.2505776093E-03      0.1212541641E-02

    ------------------------------------------------
       NWT REQUIRED            9 OUTER ITERATIONS 
       AND A TOTAL OF         14 INNER ITERATIONS.
    ------------------------------------------------

 NO OUTPUT CONTROL FOR STRESS PERIOD   12   TIME STEP   28
 
 SOLVING FOR HEAD 
                                                   Max.-Head-Change                         Max.-Flux-Residual
  Residual-Control   Outer-Iter.   Inner-Iter.     Column Row Layer    Maximum-Head-Change  Column Row Layer    Maximum-Flux-Residual          L2-NORM 
          0                 1           2             3   13     1       0.6461446449E-02       3   13    1         0.3410036476E+00      0.1802236944E+01
          0                 2           2             8    2     1       0.2599370316E-02       8    2    1         0.6749136588E-01      0.4352052628E+00
          0                 3           2             8    2     1       0.1168606760E-02       8    2    1         0.3034233300E-01      0.1575477546E+00
          0                 4           2             8    2     1       0.5253733437E-03       8    2    1         0.1364109121E-01      0.6773537075E-01
          0                 5           2             8    2     1       0.2361930261E-03       8    2    1         0.6132656628E-02      0.3014182295E-01
          0                 6           1             8    2     1       0.1061855687E-03       8    2    1         0.2757068633E-02      0.1348678782E-01
          0                 7           1             8    2     1       0.4773790049E-04       8    2    1         0.1239498189E-02      0.6039897397E-02
          0                 8           1             8    2     1       0.2146152178E-04       8    2    1         0.5572416885E-03      0.2705381052E-02
          0                 9           1             8    2     1       0.9648439552E-05       8    2    1         0.2505190069E-03      0.1211877656E-02

    ------------------------------------------------
       NWT REQUIRED            9 OUTER ITERATIONS 
       AND A TOTAL OF         14 INNER ITERATIONS.
    ------------------------------------------------

 NO OUTPUT CONTROL FOR STRESS PERIOD   12   TIME STEP   29
 
 SOLVING FOR HEAD 
                                                   Max.-Head-Change                         Max.-Flux-Residual
  Residual-Control   Outer-Iter.   Inner-Iter.     Column Row Layer    Maximum-Head-Change  Column Row Layer    Maximum-Flux-Residual          L2-NORM 
          0                 1           2             3   13     1       0.6387797404E-02       3   13    1         0.3370880288E+00      0.1800938662E+01
          0                 2           2             8    2     1       0.2598757748E-02       8    2    1         0.6747552437E-01      0.4349953368E+00
          0                 3           2             8    2     1       0.1168330024E-02       8    2    1         0.3033517618E-01      0.1574674738E+00
          0                 4           2             8    2     1       0.5252483292E-03       8    2    1         0.1363785805E-01      0.6769937990E-01
          0                 5           2             8    2     1       0.2361365527E-03       8    2    1         0.6131196060E-02      0.3012564216E-01
          0                 6           1             8    2     1       0.1061600590E-03       8    2    1         0.2756408851E-02      0.1347951866E-01
          0                 7           1             8    2     1       0.4772637725E-04       8    2    1         0.1239200151E-02      0.6036632539E-02
          0                 8           1             8    2     1       0.2145631697E-04       8    2    1         0.5571070671E-03      0.2703915305E-02
          0                 9           1             8    2     1       0.9646088758E-05       8    2    1         0.2504582012E-03      0.1211219013E-02

    ------------------------------------------------
       NWT REQUIRED            9 OUTER ITERATIONS 
       AND A TOTAL OF         14 INNER ITERATIONS.
    ------------------------------------------------

 NO OUTPUT CONTROL FOR STRESS PERIOD   12   TIME STEP   30



 STREAM LISTING     PERIOD     12   STEP       30

 LAYER ROW COL. STREAM  RCH.  FLOW INTO     FLOW TO   FLOW OUT OF   OVRLND.     DIRECT     STREAM       STREAM     STREAM     STREAM   STREAMBED  STREAMBED
                SEG.NO.  NO.  STRM. RCH.    AQUIFER    STRM. RCH.    RUNOFF     PRECIP       ET          HEAD       DEPTH      WIDTH   CONDCTNC.   GRADIENT

   1    1    1     1     1    3.2178E+00  8.0495E-10   3.2178E+00  0.000E+00  0.000E+00  0.000E+00  1.09369E+03  6.461E-01  4.906E+00  2.208E-10  1.215E+00
   1    2    2     1     2    3.2178E+00  1.2487E-10   3.2178E+00  0.000E+00  0.000E+00  0.000E+00  1.08870E+03  6.446E-01  4.894E+00  3.426E-11  1.215E+00
   1    3    3     1     3    3.2178E+00  1.0715E-10   3.2178E+00  0.000E+00  0.000E+00  0.000E+00  1.08306E+03  6.452E-01  4.899E+00  2.939E-11  1.215E+00
   1    3    4     1     4    3.2178E+00  9.9162E-10   3.2178E+00  0.000E+00  0.000E+00  0.000E+00  1.07805E+03  6.455E-01  4.901E+00  2.720E-10  1.215E+00
   1    4    5     2     1    1.2178E+00  2.4841E-01   9.6940E-01  0.000E+00  0.000E+00  0.000E+00  1.07212E+03  1.847E-01  1.200E+01  7.800E-02  1.062E+00
   1    5    6     2     2    9.6940E-01  1.8969E-01   7.7971E-01  0.000E+00  0.000E+00  0.000E+00  1.06667E+03  1.615E-01  1.200E+01  6.000E-02  1.054E+00
   1    6    6     2     3    7.7971E-01  1.8837E-01   5.9134E-01  0.000E+00  0.000E+00  0.000E+00  1.06193E+03  1.396E-01  1.200E+01  6.000E-02  1.047E+00
   1    7    6     2     4    5.9134E-01  1.8691E-01   4.0443E-01  0.000E+00  0.000E+00  0.000E+00  1.05719E+03  1.152E-01  1.200E+01  6.000E-02  1.038E+00
   1    8    6     2     5    4.0443E-01  1.8522E-01   2.1921E-01  0.000E+00  0.000E+00  0.000E+00  1.05245E+03  8.699E-02  1.200E+01  6.000E-02  1.029E+00
   1    3    5     3     1    2.0000E+00  2.8252E-01   1.7175E+00  0.000E+00  0.000E+00  0.000E+00  1.07555E+03  1.909E+00  9.636E+00  7.227E-02  1.955E+00
   1    3    6     3     2    1.7175E+00  2.4905E-01   1.4684E+00  0.000E+00  0.000E+00  0.000E+00  1.07264E+03  1.727E+00  8.909E+00  6.682E-02  1.864E+00
   1    3    7     3     3    1.4684E+00  1.9718E-01   1.2712E+00  0.000E+00  0.000E+00  0.000E+00  1.06987E+03  1.555E+00  8.218E+00  5.547E-02  1.777E+00
   1    4    8     3     4    1.2712E+00  2.2567E-01   1.0456E+00  0.000E+00  0.000E+00  0.000E+00  1.06682E+03  1.364E+00  7.455E+00  6.709E-02  1.682E+00
   1    5    8     3     5    1.0456E+00  1.5790E-01   8.8768E-01  0.000E+00  0.000E+00  0.000E+00  1.06362E+03  1.164E+00  6.655E+00  4.991E-02  1.582E+00
   1    6    8     3     6    8.8768E-01  5.5980E-02   8.3170E-01  0.000E+00  0.000E+00  0.000E+00  1.06158E+03  1.036E+00  6.145E+00  1.844E-02  1.518E+00
   1    5   10     4     1    1.0000E+01  9.0919E-02   9.9091E+00  0.000E+00  0.000E+00  0.000E+00  1.07836E+03  6.368E-01  1.000E+01  2.500E-02  1.212E+00
   1    5    9     4     2    9.9091E+00  1.8158E-01   9.7275E+00  0.000E+00  0.000E+00  0.000E+00  1.07154E+03  6.315E-01  1.000E+01  5.000E-02  1.211E+00
   1    6    8     4     3    9.7275E+00  1.2689E-01   9.6006E+00  0.000E+00  0.000E+00  0.000E+00  1.06381E+03  6.256E-01  1.000E+01  3.500E-02  1.209E+00
   1    6    8     5     1    1.0432E+01  2.2686E-09   1.0432E+01  0.000E+00  0.000E+00  0.000E+00  1.05868E+03  6.790E-01  1.542E+01  6.166E-10  1.226E+00
   1    7    7     5     2    1.0432E+01  2.8306E-09   1.0432E+01  0.000E+00  0.000E+00  0.000E+00  1.05418E+03  6.784E-01  1.539E+01  7.695E-10  1.226E+00
   1    8    7     5     3    1.0432E+01  1.9868E-09   1.0432E+01  0.000E+00  0.000E+00  0.000E+00  1.04993E+03  6.794E-01  1.543E+01  5.400E-10  1.226E+00
   1    8    6     5     4    1.0432E+01  1.4217E-09   1.0432E+01  0.000E+00  0.000E+00  0.000E+00  1.04693E+03  6.800E-01  1.545E+01  3.863E-10  1.227E+00
   1    9    6     6     1    1.0652E+01  2.2363E-01   1.0428E+01  0.000E+00  0.000E+00  0.000E+00  1.04345E+03  7.272E-01  1.200E+01  6.000E-02  1.242E+00
   1   10    7     6     2    1.0428E+01  2.2308E-01   1.0205E+01  0.000E+00  0.000E+00  0.000E+00  1.03890E+03  7.179E-01  1.200E+01  6.000E-02  1.239E+00
   1   11    7     6     3    1.0205E+01  2.2252E-01   9.9823E+00  0.000E+00  0.000E+00  0.000E+00  1.03434E+03  7.086E-01  1.200E+01  6.000E-02  1.236E+00
   1   12    7     6     4    9.9823E+00  2.2195E-01   9.7603E+00  0.000E+00  0.000E+00  0.000E+00  1.02979E+03  6.992E-01  1.200E+01  6.000E-02  1.233E+00
   1   13    7     6     5    9.7603E+00  8.8622E-02   9.6717E+00  0.000E+00  0.000E+00  0.000E+00  1.02660E+03  6.926E-01  1.200E+01  2.400E-02  1.231E+00
   1   14    9     7     1    1.5000E+02  2.9539E-08   1.5000E+02  0.000E+00  0.000E+00  0.000E+00  1.03986E+03  2.283E+00  5.528E+01  5.591E-09  1.761E+00
   1   13    8     7     2    1.5000E+02  3.2486E-14   1.5000E+02  0.000E+00  0.000E+00  0.000E+00  1.03478E+03  2.283E+00  5.527E+01  6.150E-15  1.761E+00
   1   13    7     7     3    1.5000E+02  2.9539E-08   1.5000E+02  0.000E+00  0.000E+00  0.000E+00  1.02970E+03  2.283E+00  5.528E+01  5.591E-09  1.761E+00
   1   13    6     8     1    1.5967E+02  2.5069E-32   1.5967E+02  0.000E+00  0.000E+00  0.000E+00  1.02476E+03  2.884E+00  4.181E+01  4.261E-33  1.961E+00
   1   13    5     8     2    1.5967E+02  2.4960E-09   1.5967E+02  0.000E+00  0.000E+00  0.000E+00  1.01850E+03  2.875E+00  4.169E+01  4.248E-10  1.958E+00
   1   13    4     8     3    1.5967E+02  1.9186E-09   1.5967E+02  0.000E+00  0.000E+00  0.000E+00  1.01225E+03  2.877E+00  4.172E+01  4.251E-10  1.504E+00
   1   13    3     8     4    1.5967E+02  3.8059E-07   1.5967E+02  0.000E+00  0.000E+00  0.000E+00  1.00601E+03  2.882E+00  4.179E+01  4.259E-07  2.979E-01
   1   13    2     8     5    1.5967E+02 -1.4707E+00   1.6114E+02  0.000E+00  0.000E+00  0.000E+00  9.99764E+02  2.889E+00  4.188E+01  4.268E+00 -1.149E-01
   1   13    1     8     6    1.6114E+02 -1.8070E+00   1.6295E+02  0.000E+00  0.000E+00  0.000E+00  9.94775E+02  2.900E+00  4.204E+01  2.571E+00 -2.343E-01
   1    6    8     9     1    0.0000E+00  0.0000E+00   0.0000E+00  0.000E+00  0.000E+00  0.000E+00  1.07850E+03  0.000E+00  4.000E+00  0.000E+00  1.000E+00





UNSATURATED ZONE PACKAGE VOLUMETRIC BUDGET FOR  TIME STEP    30 STRESS PERIOD   12
  ------------------------------------------------------------------------------



     CUMULATIVE VOLUMES      L**3       RATES FOR THIS TIME STEP      L**3/T
     ------------------                 ------------------------

           IN:                                      IN:
           ---                                      ---
        INFILTRATION =    56773323.1201          INFILTRATION =           0.8475

          OUT:                                     OUT:
          ----                                     ----
              UZF ET =   563893277.8251                UZF ET =           0.0099
        UZF RECHARGE =   791182553.4049          UZF RECHARGE =          25.9007

            IN - OUT = -1298302508.1099              IN - OUT =         -25.0631

          STORAGE:                                 STORAGE:
          --------                                 --------
      STORAGE CHANGE = -1298294720.4548        STORAGE CHANGE =         -25.0631

 PERCENT DISCREPANCY IS DIFFERENCE BETWEEN IN-OUT MINUS CHANGE IN STORAGE
 DIVIDED BY THE AVERAGE OF IN AND OUT TIMES 100

 PERCENT DISCREPANCY =          -0.00     PERCENT DISCREPANCY =           0.00






1
  VOLUMETRIC BUDGET FOR ENTIRE MODEL AT END OF TIME STEP   30, STRESS PERIOD  12
  ------------------------------------------------------------------------------

     CUMULATIVE VOLUMES      L**3       RATES FOR THIS TIME STEP      L**3/T
     ------------------                 ------------------------

           IN:                                      IN:
           ---                                      ---
             STORAGE =    16149497.0000               STORAGE =           0.0000
       CONSTANT HEAD =           0.0000         CONSTANT HEAD =           0.0000
               WELLS =           0.0000                 WELLS =           0.0000
     HEAD DEP BOUNDS =    33010840.0000       HEAD DEP BOUNDS =           1.0186
      STREAM LEAKAGE =   123149080.0000        STREAM LEAKAGE =           3.5461
        UZF RECHARGE =   791182720.0000          UZF RECHARGE =          25.9007
               GW ET =           0.0000                 GW ET =           0.0000
     SURFACE LEAKAGE =           0.0000       SURFACE LEAKAGE =           0.0000

            TOTAL IN =   963492096.0000              TOTAL IN =          30.4653

          OUT:                                     OUT:
          ----                                     ----
             STORAGE =   844773952.0000               STORAGE =          26.8920
       CONSTANT HEAD =           0.0000         CONSTANT HEAD =           0.0000
               WELLS =     1059111.1250                 WELLS =           0.0000
     HEAD DEP BOUNDS =     8940187.0000       HEAD DEP BOUNDS =           0.2841
      STREAM LEAKAGE =    71211120.0000        STREAM LEAKAGE =           3.2777
        UZF RECHARGE =           0.0000          UZF RECHARGE =           0.0000
               GW ET =    37429312.0000                 GW ET =       7.4326E-03
     SURFACE LEAKAGE =           0.0000       SURFACE LEAKAGE =           0.0000

           TOTAL OUT =   963413696.0000             TOTAL OUT =          30.4613

            IN - OUT =       78400.0000              IN - OUT =       4.0264E-03

 PERCENT DISCREPANCY =           0.01     PERCENT DISCREPANCY =           0.01






         TIME SUMMARY AT END OF TIME STEP   30 IN STRESS PERIOD   12
                    SECONDS     MINUTES      HOURS       DAYS        YEARS
                    -----------------------------------------------------------
   TIME STEP LENGTH  87600.      1460.0      24.333      1.0139     2.77588E-03
 STRESS PERIOD TIME 2.62800E+06  43800.      730.00      30.417     8.32763E-02
         TOTAL TIME 3.15360E+07 5.25600E+05  8760.0      365.00     0.99932    
1
1
                            STRESS PERIOD NO.   13, LENGTH =   2628000.    
                            -----------------------------------------------

                              NUMBER OF TIME STEPS =    30

                               MULTIPLIER FOR DELT =     1.000

                            INITIAL TIME STEP SIZE =   87600.00    

 WELL NO.  LAYER   ROW   COL   STRESS RATE         
 --------------------------------------------------
      1      1      6      4       0.000    
      2      1      6      7       0.000    
      3      1      7      4       0.000    
      4      1      7      5       0.000    
      5      1      8      4       0.000    
      6      1      8      5       0.000    
      7      1      9      4       0.000    
      8      1      9      5       0.000    
      9      1     10      4       0.000    
     10      1     10      5       0.000    

     10 WELLS

 REUSING NON-PARAMETER GHB CELLS FROM LAST STRESS PERIOD

      2 GHB CELLS

 REUSING STREAM SEGMENT DATA FROM LAST STRESS PERIOD



            AREAL INFILTRATION RATE
 READING ON UNIT   19 WITH FORMAT: (10F4.0)            

            1           2           3           4           5           6           7           8           9          10
 ........................................................................................................................
   1   1.0000E-10  2.0000E-10   0.000       0.000       0.000       0.000       0.000       0.000       0.000       0.000    
   2   2.0000E-10  1.0000E-10  2.0000E-10   0.000       0.000      8.0000E-10  8.0000E-10  5.0000E-10   0.000       0.000    
   3    0.000      5.0000E-10  1.0000E-10  1.0000E-10  8.0000E-10  8.0000E-10  5.0000E-10  5.0000E-10   0.000       0.000    
   4   8.0000E-10  5.0000E-10  1.0000E-10  1.0000E-10  1.0000E-10  1.0000E-10  1.0000E-10  1.0000E-10  2.0000E-10   0.000    
   5   8.0000E-10  5.0000E-10  1.0000E-10  1.0000E-10  1.0000E-10  1.0000E-10  1.0000E-10  1.0000E-10  1.0000E-10  1.0000E-10
   6   8.0000E-10  5.0000E-10  5.0000E-10  2.0000E-10  2.0000E-10  1.0000E-10  1.0000E-10  1.0000E-10  1.0000E-10  5.0000E-10
   7   8.0000E-10  5.0000E-10  5.0000E-10  2.0000E-10  2.0000E-10  1.0000E-10  1.0000E-10  2.0000E-10  2.0000E-10   0.000    
   8    0.000      5.0000E-10  5.0000E-10  2.0000E-10  2.0000E-10  1.0000E-10  1.0000E-10  2.0000E-10  5.0000E-10   0.000    
   9    0.000      5.0000E-10  5.0000E-10  2.0000E-10  2.0000E-10  1.0000E-10  1.0000E-10  2.0000E-10  5.0000E-10   0.000    
  10    0.000      5.0000E-10  5.0000E-10  2.0000E-10  2.0000E-10  1.0000E-10  1.0000E-10  2.0000E-10  5.0000E-10  8.0000E-10
  11    0.000      1.0000E-10  1.0000E-10  1.0000E-10  1.0000E-10  1.0000E-10  1.0000E-10  2.0000E-10  5.0000E-10   0.000    
  12   1.0000E-10  1.0000E-10  1.0000E-10  1.0000E-10  1.0000E-10  1.0000E-10  1.0000E-10  1.0000E-10  2.0000E-10   0.000    
  13   1.0000E-10  1.0000E-10  2.0000E-10  2.0000E-10  2.0000E-10  2.0000E-10  2.0000E-10  1.0000E-10  1.0000E-10   0.000    
  14    0.000      2.0000E-10  5.0000E-10  5.0000E-10  5.0000E-10  5.0000E-10  5.0000E-10  2.0000E-10  1.0000E-10   0.000    
  15    0.000       0.000      8.0000E-10  8.0000E-10  8.0000E-10  8.0000E-10   0.000       0.000       0.000       0.000    

                  ET RATE =  1.000000E-10

 USING ET EXTINCTION DEPTH FROM PREVIOUS STRESS PERIOD. CURRENT PERIOD IS:      13

 USING EXTINCTION WATER CONTENT FROM PREVIOUS STRESS PERIOD. CURRENT PERIOD IS:      13
 
 SOLVING FOR HEAD 
                                                   Max.-Head-Change                         Max.-Flux-Residual
  Residual-Control   Outer-Iter.   Inner-Iter.     Column Row Layer    Maximum-Head-Change  Column Row Layer    Maximum-Flux-Residual          L2-NORM 
          0                 1           2             3   13     1       0.6315599200E-02       3   13    1         0.3332628655E+00      0.1799198703E+01
          0                 2           2             8    2     1       0.2598161365E-02       8    2    1         0.6746010407E-01      0.4347221916E+00
          0                 3           2             8    2     1       0.1168060543E-02       8    2    1         0.3032820818E-01      0.1573827807E+00
          0                 4           2             8    2     1       0.5251265659E-03       8    2    1         0.1363470951E-01      0.6766262771E-01
          0                 5           2             8    2     1       0.2360815369E-03       8    2    1         0.6129773428E-02      0.3011188085E-01
          0                 6           1             8    2     1       0.1061352022E-03       8    2    1         0.2755766073E-02      0.1347220760E-01
          0                 7           1             8    2     1       0.4771514714E-04       8    2    1         0.1238909740E-02      0.6045068803E-02
          0                 8           1             8    2     1       0.2145124346E-04       8    2    1         0.5569758623E-03      0.2731938535E-02
          0                 9           1             8    2     1       0.9643796740E-05       8    2    1         0.2503989263E-03      0.1210706962E-02

    ------------------------------------------------
       NWT REQUIRED            9 OUTER ITERATIONS 
       AND A TOTAL OF         14 INNER ITERATIONS.
    ------------------------------------------------

 NO OUTPUT CONTROL FOR STRESS PERIOD   13   TIME STEP    1
 
 SOLVING FOR HEAD 
                                                   Max.-Head-Change                         Max.-Flux-Residual
  Residual-Control   Outer-Iter.   Inner-Iter.     Column Row Layer    Maximum-Head-Change  Column Row Layer    Maximum-Flux-Residual          L2-NORM 
          0                 1           2             3   13     1       0.6245197428E-02       3   13    1         0.3295016351E+00      0.1798520754E+01
          0                 2           2             8    2     1       0.2597561465E-02       8    2    1         0.6744459256E-01      0.4345821502E+00
          0                 3           2             8    2     1       0.1167789479E-02       8    2    1         0.3032119911E-01      0.1573078723E+00
          0                 4           2             8    2     1       0.5250040906E-03       8    2    1         0.1363154249E-01      0.6762724592E-01
          0                 5           2             8    2     1       0.2360262006E-03       8    2    1         0.6128342474E-02      0.3009317690E-01
          0                 6           1             8    2     1       0.1061102011E-03       8    2    1         0.2755119550E-02      0.1346493211E-01
          0                 7           1             8    2     1       0.4770385237E-04       8    2    1         0.1238617646E-02      0.6030196797E-02
          0                 8           1             8    2     1       0.2144614057E-04       8    2    1         0.5568438980E-03      0.2701215478E-02
          0                 9           1             8    2     1       0.9641491717E-05       8    2    1         0.2503393131E-03      0.1209896910E-02

    ------------------------------------------------
       NWT REQUIRED            9 OUTER ITERATIONS 
       AND A TOTAL OF         14 INNER ITERATIONS.
    ------------------------------------------------

 NO OUTPUT CONTROL FOR STRESS PERIOD   13   TIME STEP    2
 
 SOLVING FOR HEAD 
                                                   Max.-Head-Change                         Max.-Flux-Residual
  Residual-Control   Outer-Iter.   Inner-Iter.     Column Row Layer    Maximum-Head-Change  Column Row Layer    Maximum-Flux-Residual          L2-NORM 
          0                 1           2             3   13     1       0.6176639121E-02       3   13    1         0.3258393219E+00      0.1797896704E+01
          0                 2           2             8    2     1       0.2596958118E-02       8    2    1         0.6742899081E-01      0.4344282939E+00
          0                 3           2             8    2     1       0.1167516881E-02       8    2    1         0.3031414988E-01      0.1572292382E+00
          0                 4           2             8    2     1       0.5248809322E-03       8    2    1         0.1362835760E-01      0.6759129962E-01
          0                 5           2             8    2     1       0.2359705604E-03       8    2    1         0.6126903567E-02      0.3007701989E-01
          0                 6           1             8    2     1       0.1060850650E-03       8    2    1         0.2754469486E-02      0.1345767641E-01
          0                 7           1             8    2     1       0.4769249733E-04       8    2    1         0.1238323973E-02      0.6026821511E-02
          0                 8           1             8    2     1       0.2144101117E-04       8    2    1         0.5567112308E-03      0.2699508481E-02
          0                 9           1             8    2     1       0.9639174563E-05       8    2    1         0.2502793795E-03      0.1209240064E-02

    ------------------------------------------------
       NWT REQUIRED            9 OUTER ITERATIONS 
       AND A TOTAL OF         14 INNER ITERATIONS.
    ------------------------------------------------

 NO OUTPUT CONTROL FOR STRESS PERIOD   13   TIME STEP    3
 
 SOLVING FOR HEAD 
                                                   Max.-Head-Change                         Max.-Flux-Residual
  Residual-Control   Outer-Iter.   Inner-Iter.     Column Row Layer    Maximum-Head-Change  Column Row Layer    Maximum-Flux-Residual          L2-NORM 
          0                 1           2             3   13     1       0.6109881100E-02       3   13    1         0.3222736732E+00      0.1796422887E+01
          0                 2           2             8    2     1       0.2596351273E-02       8    2    1         0.6741329882E-01      0.4341756627E+00
          0                 3           2             8    2     1       0.1167242698E-02       8    2    1         0.3030705976E-01      0.1571458870E+00
          0                 4           2             8    2     1       0.5247570567E-03       8    2    1         0.1362515419E-01      0.6755496864E-01
          0                 5           2             8    2     1       0.2359145954E-03       8    2    1         0.6125456275E-02      0.3006073724E-01
          0                 6           1             8    2     1       0.1060597820E-03       8    2    1         0.2753815627E-02      0.1345036369E-01
          0                 7           1             8    2     1       0.4768107526E-04       8    2    1         0.1238028580E-02      0.6023537169E-02
          0                 8           1             8    2     1       0.2143585176E-04       8    2    1         0.5565777921E-03      0.2698033322E-02
          0                 9           1             8    2     1       0.9636844028E-05       8    2    1         0.2502191008E-03      0.1208577756E-02

    ------------------------------------------------
       NWT REQUIRED            9 OUTER ITERATIONS 
       AND A TOTAL OF         14 INNER ITERATIONS.
    ------------------------------------------------

 NO OUTPUT CONTROL FOR STRESS PERIOD   13   TIME STEP    4
 
 SOLVING FOR HEAD 
                                                   Max.-Head-Change                         Max.-Flux-Residual
  Residual-Control   Outer-Iter.   Inner-Iter.     Column Row Layer    Maximum-Head-Change  Column Row Layer    Maximum-Flux-Residual          L2-NORM 
          0                 1           2             3   13     1       0.6044976831E-02       3   13    1         0.3188076508E+00      0.1795769034E+01
          0                 2           2             8    2     1       0.2595741009E-02       8    2    1         0.6739751727E-01      0.4340251440E+00
          0                 3           2             8    2     1       0.1166966995E-02       8    2    1         0.3029992981E-01      0.1570695088E+00
          0                 4           2             8    2     1       0.5246325047E-03       8    2    1         0.1362193306E-01      0.6751892210E-01
          0                 5           2             8    2     1       0.2358583293E-03       8    2    1         0.6124001103E-02      0.3004446966E-01
          0                 6           1             8    2     1       0.1060343651E-03       8    2    1         0.2753158267E-02      0.1344304175E-01
          0                 7           1             8    2     1       0.4766959416E-04       8    2    1         0.1237731634E-02      0.6020247666E-02
          0                 8           1             8    2     1       0.2143066558E-04       8    2    1         0.5564436571E-03      0.2696555576E-02
          0                 9           1             8    2     1       0.9634501488E-05       8    2    1         0.2501585146E-03      0.1207919515E-02

    ------------------------------------------------
       NWT REQUIRED            9 OUTER ITERATIONS 
       AND A TOTAL OF         14 INNER ITERATIONS.
    ------------------------------------------------

 NO OUTPUT CONTROL FOR STRESS PERIOD   13   TIME STEP    5
 
 SOLVING FOR HEAD 
                                                   Max.-Head-Change                         Max.-Flux-Residual
  Residual-Control   Outer-Iter.   Inner-Iter.     Column Row Layer    Maximum-Head-Change  Column Row Layer    Maximum-Flux-Residual          L2-NORM 
          0                 1           2             3   13     1       0.5981751102E-02       3   13    1         0.3154319870E+00      0.1795144657E+01
          0                 2           2             8    2     1       0.2595107690E-02       8    2    1         0.6738113639E-01      0.4338837653E+00
          0                 3           2             8    2     1       0.1166680942E-02       8    2    1         0.3029253081E-01      0.1569936107E+00
          0                 4           2             8    2     1       0.5245033064E-03       8    2    1         0.1361859115E-01      0.6748295458E-01
          0                 5           2             8    2     1       0.2357999782E-03       8    2    1         0.6122491717E-02      0.3002810066E-01
          0                 6           1             8    2     1       0.1060080118E-03       8    2    1         0.2752476566E-02      0.1343568120E-01
          0                 7           1             8    2     1       0.4765769275E-04       8    2    1         0.1237423762E-02      0.6028051966E-02
          0                 8           1             8    2     1       0.2142529094E-04       8    2    1         0.5563046198E-03      0.2695194195E-02
          0                 9           1             8    2     1       0.9632074536E-05       3   13    1        -0.3643189364E-03      0.1261070022E-02

    ------------------------------------------------
       NWT REQUIRED            9 OUTER ITERATIONS 
       AND A TOTAL OF         14 INNER ITERATIONS.
    ------------------------------------------------

 NO OUTPUT CONTROL FOR STRESS PERIOD   13   TIME STEP    6
 
 SOLVING FOR HEAD 
                                                   Max.-Head-Change                         Max.-Flux-Residual
  Residual-Control   Outer-Iter.   Inner-Iter.     Column Row Layer    Maximum-Head-Change  Column Row Layer    Maximum-Flux-Residual          L2-NORM 
          0                 1           2             3   13     1       0.5920129547E-02       3   13    1         0.3121422981E+00      0.1794591528E+01
          0                 2           2             8    2     1       0.2594490689E-02       8    2    1         0.6736517971E-01      0.4337468186E+00
          0                 3           2             8    2     1       0.1166402214E-02       8    2    1         0.3028532224E-01      0.1569183520E+00
          0                 4           2             8    2     1       0.5243773967E-03       8    2    1         0.1361533473E-01      0.6744715625E-01
          0                 5           2             8    2     1       0.2357431028E-03       8    2    1         0.6121020701E-02      0.3001186317E-01
          0                 6           1             8    2     1       0.1059823216E-03       8    2    1         0.2751812092E-02      0.1342837485E-01
          0                 7           1             8    2     1       0.4764608885E-04       8    2    1         0.1237123618E-02      0.6013656003E-02
          0                 8           1             8    2     1       0.2142004987E-04       8    2    1         0.5561690476E-03      0.2693596631E-02
          0                 9           1             8    2     1       0.9629707110E-05       8    2    1         0.2500344899E-03      0.1206588696E-02

    ------------------------------------------------
       NWT REQUIRED            9 OUTER ITERATIONS 
       AND A TOTAL OF         14 INNER ITERATIONS.
    ------------------------------------------------

 NO OUTPUT CONTROL FOR STRESS PERIOD   13   TIME STEP    7
 
 SOLVING FOR HEAD 
                                                   Max.-Head-Change                         Max.-Flux-Residual
  Residual-Control   Outer-Iter.   Inner-Iter.     Column Row Layer    Maximum-Head-Change  Column Row Layer    Maximum-Flux-Residual          L2-NORM 
          0                 1           2             3   13     1       0.5860068217E-02       3   13    1         0.3089398454E+00      0.1794019672E+01
          0                 2           2             8    2     1       0.2593870286E-02       8    2    1         0.6734913475E-01      0.4335673846E+00
          0                 3           2             8    2     1       0.1166121955E-02       8    2    1         0.3027807394E-01      0.1568363009E+00
          0                 4           2             8    2     1       0.5242507980E-03       8    2    1         0.1361206043E-01      0.6741117559E-01
          0                 5           2             8    2     1       0.2356859179E-03       8    2    1         0.6119541645E-02      0.2999559902E-01
          0                 6           1             8    2     1       0.1059564917E-03       8    2    1         0.2751143999E-02      0.1342105773E-01
          0                 7           1             8    2     1       0.4763442217E-04       8    2    1         0.1236821852E-02      0.6010368641E-02
          0                 8           1             8    2     1       0.2141478065E-04       8    2    1         0.5560327509E-03      0.2692117052E-02
          0                 9           1             8    2     1       0.9627327303E-05       8    2    1         0.2499729302E-03      0.1206461052E-02

    ------------------------------------------------
       NWT REQUIRED            9 OUTER ITERATIONS 
       AND A TOTAL OF         14 INNER ITERATIONS.
    ------------------------------------------------

 NO OUTPUT CONTROL FOR STRESS PERIOD   13   TIME STEP    8
 
 SOLVING FOR HEAD 
                                                   Max.-Head-Change                         Max.-Flux-Residual
  Residual-Control   Outer-Iter.   Inner-Iter.     Column Row Layer    Maximum-Head-Change  Column Row Layer    Maximum-Flux-Residual          L2-NORM 
          0                 1           2             3   13     1       0.5801257331E-02       3   13    1         0.3058038475E+00      0.1793438558E+01
          0                 2           2             8    2     1       0.2593226843E-02       8    2    1         0.6733249088E-01      0.4334460752E+00
          0                 3           2             8    2     1       0.1165831354E-02       8    2    1         0.3027055678E-01      0.1567663573E+00
          0                 4           2             8    2     1       0.5241195569E-03       8    2    1         0.1360866544E-01      0.6737518685E-01
          0                 5           2             8    2     1       0.2356266485E-03       8    2    1         0.6118008408E-02      0.2998161625E-01
          0                 6           1             8    2     1       0.1059297261E-03       8    2    1         0.2750451586E-02      0.1341374861E-01
          0                 7           1             8    2     1       0.4762233580E-04       8    2    1         0.1236509168E-02      0.6007076497E-02
          0                 8           1             8    2     1       0.2140932235E-04       8    2    1         0.5558915482E-03      0.2690639765E-02
          0                 9           1             8    2     1       0.9624862834E-05       8    2    1         0.2499091744E-03      0.1205255290E-02

    ------------------------------------------------
       NWT REQUIRED            9 OUTER ITERATIONS 
       AND A TOTAL OF         14 INNER ITERATIONS.
    ------------------------------------------------

 NO OUTPUT CONTROL FOR STRESS PERIOD   13   TIME STEP    9
 
 SOLVING FOR HEAD 
                                                   Max.-Head-Change                         Max.-Flux-Residual
  Residual-Control   Outer-Iter.   Inner-Iter.     Column Row Layer    Maximum-Head-Change  Column Row Layer    Maximum-Flux-Residual          L2-NORM 
          0                 1           2             8    2     1       0.5766870174E-02       3   13    1         0.3027496463E+00      0.1792850157E+01
          0                 2           2             8    2     1       0.2592599831E-02       8    2    1         0.6731627324E-01      0.4333054746E+00
          0                 3           2             8    2     1       0.1165548148E-02       8    2    1         0.3026323146E-01      0.1566911397E+00
          0                 4           2             8    2     1       0.5239916438E-03       8    2    1         0.1360535679E-01      0.6733968497E-01
          0                 5           2             8    2     1       0.2355688772E-03       8    2    1         0.6116514029E-02      0.2996315678E-01
          0                 6           1             8    2     1       0.1059036348E-03       8    2    1         0.2749776659E-02      0.1340646279E-01
          0                 7           1             8    2     1       0.4761055220E-04       8    2    1         0.1236204351E-02      0.6003810656E-02
          0                 8           1             8    2     1       0.2140400137E-04       8    2    1         0.5557538926E-03      0.2689171033E-02
          0                 9           1             8    2     1       0.9622459642E-05       8    2    1         0.2498470063E-03      0.1204596506E-02

    ------------------------------------------------
       NWT REQUIRED            9 OUTER ITERATIONS 
       AND A TOTAL OF         14 INNER ITERATIONS.
    ------------------------------------------------

 NO OUTPUT CONTROL FOR STRESS PERIOD   13   TIME STEP   10
 
 SOLVING FOR HEAD 
                                                   Max.-Head-Change                         Max.-Flux-Residual
  Residual-Control   Outer-Iter.   Inner-Iter.     Column Row Layer    Maximum-Head-Change  Column Row Layer    Maximum-Flux-Residual          L2-NORM 
          0                 1           2             8    2     1       0.5765474565E-02       3   13    1         0.2997758796E+00      0.1792368221E+01
          0                 2           2             8    2     1       0.2591969396E-02       8    2    1         0.6729996812E-01      0.4331709973E+00
          0                 3           2             8    2     1       0.1165263373E-02       8    2    1         0.3025586603E-01      0.1566157072E+00
          0                 4           2             8    2     1       0.5238630125E-03       8    2    1         0.1360202977E-01      0.6730381212E-01
          0                 5           2             8    2     1       0.2355107770E-03       8    2    1         0.6115011240E-02      0.2994689419E-01
          0                 6           1             8    2     1       0.1058773932E-03       8    2    1         0.2749097888E-02      0.1339914745E-01
          0                 7           1             8    2     1       0.4759870044E-04       8    2    1         0.1235897780E-02      0.6000523918E-02
          0                 8           1             8    2     1       0.2139864861E-04       8    2    1         0.5556154311E-03      0.2687696318E-02
          0                 9           1             8    2     1       0.9620042319E-05       8    2    1         0.2497844742E-03      0.1203933079E-02

    ------------------------------------------------
       NWT REQUIRED            9 OUTER ITERATIONS 
       AND A TOTAL OF         14 INNER ITERATIONS.
    ------------------------------------------------

 NO OUTPUT CONTROL FOR STRESS PERIOD   13   TIME STEP   11
 
 SOLVING FOR HEAD 
                                                   Max.-Head-Change                         Max.-Flux-Residual
  Residual-Control   Outer-Iter.   Inner-Iter.     Column Row Layer    Maximum-Head-Change  Column Row Layer    Maximum-Flux-Residual          L2-NORM 
          0                 1           2             8    2     1       0.5764027716E-02       3   13    1         0.2968708887E+00      0.1791900114E+01
          0                 2           2             8    2     1       0.2591316023E-02       8    2    1         0.6728306533E-01      0.4330372398E+00
          0                 3           2             8    2     1       0.1164968330E-02       8    2    1         0.3024823306E-01      0.1565408800E+00
          0                 4           2             8    2     1       0.5237297846E-03       8    2    1         0.1359858298E-01      0.6726814658E-01
          0                 5           2             8    2     1       0.2354506191E-03       8    2    1         0.6113454831E-02      0.2993077472E-01
          0                 6           1             8    2     1       0.1058502302E-03       8    2    1         0.2748395111E-02      0.1339189009E-01
          0                 7           1             8    2     1       0.4758643624E-04       8    2    1         0.1235580460E-02      0.5997263715E-02
          0                 8           1             8    2     1       0.2139311141E-04       8    2    1         0.5554721566E-03      0.2686229096E-02
          0                 9           1             8    2     1       0.9617542334E-05       8    2    1         0.2497197840E-03      0.1203275026E-02

    ------------------------------------------------
       NWT REQUIRED            9 OUTER ITERATIONS 
       AND A TOTAL OF         14 INNER ITERATIONS.
    ------------------------------------------------

 NO OUTPUT CONTROL FOR STRESS PERIOD   13   TIME STEP   12
 
 SOLVING FOR HEAD 
                                                   Max.-Head-Change                         Max.-Flux-Residual
  Residual-Control   Outer-Iter.   Inner-Iter.     Column Row Layer    Maximum-Head-Change  Column Row Layer    Maximum-Flux-Residual          L2-NORM 
          0                 1           2             8    2     1       0.5762573751E-02       3   13    1         0.2940414321E+00      0.1791405281E+01
          0                 2           2             8    2     1       0.2590659468E-02       8    2    1         0.6726607957E-01      0.4328950896E+00
          0                 3           2             8    2     1       0.1164671864E-02       8    2    1         0.3024056298E-01      0.1564645999E+00
          0                 4           2             8    2     1       0.5235959201E-03       8    2    1         0.1359511959E-01      0.6723244363E-01
          0                 5           2             8    2     1       0.2353901771E-03       8    2    1         0.6111891009E-02      0.2991456947E-01
          0                 6           1             8    2     1       0.1058229404E-03       8    2    1         0.2747689018E-02      0.1338460736E-01
          0                 7           1             8    2     1       0.4757411477E-04       8    2    1         0.1235261655E-02      0.5993990397E-02
          0                 8           1             8    2     1       0.2138754844E-04       8    2    1         0.5553282225E-03      0.2684761370E-02
          0                 9           1             8    2     1       0.9615031094E-05       8    2    1         0.2496548053E-03      0.1202619947E-02

    ------------------------------------------------
       NWT REQUIRED            9 OUTER ITERATIONS 
       AND A TOTAL OF         14 INNER ITERATIONS.
    ------------------------------------------------

 NO OUTPUT CONTROL FOR STRESS PERIOD   13   TIME STEP   13
 
 SOLVING FOR HEAD 
                                                   Max.-Head-Change                         Max.-Flux-Residual
  Residual-Control   Outer-Iter.   Inner-Iter.     Column Row Layer    Maximum-Head-Change  Column Row Layer    Maximum-Flux-Residual          L2-NORM 
          0                 1           2             8    2     1       0.5761156456E-02       3   13    1         0.2912827089E+00      0.1790794003E+01
          0                 2           2             8    2     1       0.2590019335E-02       8    2    1         0.6724952156E-01      0.4327415606E+00
          0                 3           2             8    2     1       0.1164382753E-02       8    2    1         0.3023308447E-01      0.1563895227E+00
          0                 4           2             8    2     1       0.5234653499E-03       8    2    1         0.1359174200E-01      0.6719708585E-01
          0                 5           2             8    2     1       0.2353312098E-03       8    2    1         0.6110365605E-02      0.2989850622E-01
          0                 6           1             8    2     1       0.1057963110E-03       8    2    1         0.2747000133E-02      0.1337738152E-01
          0                 7           1             8    2     1       0.4756208968E-04       8    2    1         0.1234950561E-02      0.5990743435E-02
          0                 8           1             8    2     1       0.2138211840E-04       8    2    1         0.5551877373E-03      0.2683302527E-02
          0                 9           1             8    2     1       0.9612578880E-05       8    2    1         0.2495913655E-03      0.1201959690E-02

    ------------------------------------------------
       NWT REQUIRED            9 OUTER ITERATIONS 
       AND A TOTAL OF         14 INNER ITERATIONS.
    ------------------------------------------------

 NO OUTPUT CONTROL FOR STRESS PERIOD   13   TIME STEP   14
 
 SOLVING FOR HEAD 
                                                   Max.-Head-Change                         Max.-Flux-Residual
  Residual-Control   Outer-Iter.   Inner-Iter.     Column Row Layer    Maximum-Head-Change  Column Row Layer    Maximum-Flux-Residual          L2-NORM 
          0                 1           2             8    2     1       0.5759688043E-02       3   13    1         0.2885958239E+00      0.1790368102E+01
          0                 2           2             8    2     1       0.2589356277E-02       8    2    1         0.6723236710E-01      0.4326006081E+00
          0                 3           2             8    2     1       0.1164083360E-02       8    2    1         0.3022533847E-01      0.1563138977E+00
          0                 4           2             8    2     1       0.5233301682E-03       8    2    1         0.1358824444E-01      0.6716137515E-01
          0                 5           2             8    2     1       0.2352701750E-03       8    2    1         0.6108786405E-02      0.2988237487E-01
          0                 6           1             8    2     1       0.1057687542E-03       8    2    1         0.2746287120E-02      0.1337012481E-01
          0                 7           1             8    2     1       0.4754964866E-04       8    2    1         0.1234628644E-02      0.5987482970E-02
          0                 8           1             8    2     1       0.2137650128E-04       8    2    1         0.5550423967E-03      0.2682017849E-02
          0                 9           1             8    2     1       0.9610043505E-05       8    2    1         0.2495257523E-03      0.1201757380E-02

    ------------------------------------------------
       NWT REQUIRED            9 OUTER ITERATIONS 
       AND A TOTAL OF         14 INNER ITERATIONS.
    ------------------------------------------------

 NO OUTPUT CONTROL FOR STRESS PERIOD   13   TIME STEP   15
 
 SOLVING FOR HEAD 
                                                   Max.-Head-Change                         Max.-Flux-Residual
  Residual-Control   Outer-Iter.   Inner-Iter.     Column Row Layer    Maximum-Head-Change  Column Row Layer    Maximum-Flux-Residual          L2-NORM 
          0                 1           2             8    2     1       0.5758256387E-02       3   13    1         0.2860042858E+00      0.1789825183E+01
          0                 2           2             8    2     1       0.2588709723E-02       8    2    1         0.6721564161E-01      0.4324522620E+00
          0                 3           2             8    2     1       0.1163791378E-02       8    2    1         0.3021778508E-01      0.1562379929E+00
          0                 4           2             8    2     1       0.5231983147E-03       8    2    1         0.1358483337E-01      0.6712569535E-01
          0                 5           2             8    2     1       0.2352106342E-03       8    2    1         0.6107246036E-02      0.2986623319E-01
          0                 6           1             8    2     1       0.1057418686E-03       8    2    1         0.2745591545E-02      0.1336286498E-01
          0                 7           1             8    2     1       0.4753750852E-04       8    2    1         0.1234314556E-02      0.5984222051E-02
          0                 8           1             8    2     1       0.2137102022E-04       8    2    1         0.5549005782E-03      0.2680372828E-02
          0                 9           1             8    2     1       0.9607568531E-05       8    2    1         0.2494617146E-03      0.1200647561E-02

    ------------------------------------------------
       NWT REQUIRED            9 OUTER ITERATIONS 
       AND A TOTAL OF         14 INNER ITERATIONS.
    ------------------------------------------------

 NO OUTPUT CONTROL FOR STRESS PERIOD   13   TIME STEP   16
 
 SOLVING FOR HEAD 
                                                   Max.-Head-Change                         Max.-Flux-Residual
  Residual-Control   Outer-Iter.   Inner-Iter.     Column Row Layer    Maximum-Head-Change  Column Row Layer    Maximum-Flux-Residual          L2-NORM 
          0                 1           2             8    2     1       0.5756773749E-02       3   13    1         0.2834005759E+00      0.1789386480E+01
          0                 2           2             8    2     1       0.2588040306E-02       8    2    1         0.6719832129E-01      0.4323163951E+00
          0                 3           2             8    2     1       0.1163489144E-02       8    2    1         0.3020996493E-01      0.1561636013E+00
          0                 4           2             8    2     1       0.5230618628E-03       8    2    1         0.1358130267E-01      0.6709041865E-01
          0                 5           2             8    2     1       0.2351490311E-03       8    2    1         0.6105652014E-02      0.2985024645E-01
          0                 6           1             8    2     1       0.1057140578E-03       8    2    1         0.2744871909E-02      0.1335567397E-01
          0                 7           1             8    2     1       0.4752495382E-04       8    2    1         0.1233989683E-02      0.5980993105E-02
          0                 8           1             8    2     1       0.2136535296E-04       8    2    1         0.5547539219E-03      0.2678928686E-02
          0                 9           1             8    2     1       0.9605010145E-05       8    2    1         0.2493955108E-03      0.1199996441E-02

    ------------------------------------------------
       NWT REQUIRED            9 OUTER ITERATIONS 
       AND A TOTAL OF         14 INNER ITERATIONS.
    ------------------------------------------------

 NO OUTPUT CONTROL FOR STRESS PERIOD   13   TIME STEP   17
 
 SOLVING FOR HEAD 
                                                   Max.-Head-Change                         Max.-Flux-Residual
  Residual-Control   Outer-Iter.   Inner-Iter.     Column Row Layer    Maximum-Head-Change  Column Row Layer    Maximum-Flux-Residual          L2-NORM 
          0                 1           2             8    2     1       0.5755284216E-02       3   13    1         0.2808947957E+00      0.1788932719E+01
          0                 2           2             8    2     1       0.2587367807E-02       8    2    1         0.6718092056E-01      0.4321707252E+00
          0                 3           2             8    2     1       0.1163185531E-02       8    2    1         0.3020210884E-01      0.1560872593E+00
          0                 4           2             8    2     1       0.5229247951E-03       8    2    1         0.1357775591E-01      0.6705476219E-01
          0                 5           2             8    2     1       0.2350871531E-03       8    2    1         0.6104050819E-02      0.2983410772E-01
          0                 6           1             8    2     1       0.1056861246E-03       8    2    1         0.2744149067E-02      0.1334841527E-01
          0                 7           1             8    2     1       0.4751234422E-04       8    2    1         0.1233663369E-02      0.5977728846E-02
          0                 8           1             8    2     1       0.2135966068E-04       8    2    1         0.5546066199E-03      0.2677455911E-02
          0                 9           1             8    2     1       0.9602441004E-05       8    2    1         0.2493290226E-03      0.1199337566E-02

    ------------------------------------------------
       NWT REQUIRED            9 OUTER ITERATIONS 
       AND A TOTAL OF         14 INNER ITERATIONS.
    ------------------------------------------------

 NO OUTPUT CONTROL FOR STRESS PERIOD   13   TIME STEP   18
 
 SOLVING FOR HEAD 
                                                   Max.-Head-Change                         Max.-Flux-Residual
  Residual-Control   Outer-Iter.   Inner-Iter.     Column Row Layer    Maximum-Head-Change  Column Row Layer    Maximum-Flux-Residual          L2-NORM 
          0                 1           2             8    2     1       0.5753787788E-02       3   13    1         0.2784488980E+00      0.1788062997E+01
          0                 2           2             8    2     1       0.2586692184E-02       8    2    1         0.6716343924E-01      0.4319576773E+00
          0                 3           2             8    2     1       0.1162880504E-02       8    2    1         0.3019421624E-01      0.1560041386E+00
          0                 4           2             8    2     1       0.5227870870E-03       8    2    1         0.1357419261E-01      0.6701855388E-01
          0                 5           2             8    2     1       0.2350249850E-03       8    2    1         0.6102442135E-02      0.2981797330E-01
          0                 6           1             8    2     1       0.1056580599E-03       8    2    1         0.2743422836E-02      0.1334117927E-01
          0                 7           1             8    2     1       0.4749967522E-04       8    2    1         0.1233335526E-02      0.5974480334E-02
          0                 8           1             8    2     1       0.2135394189E-04       8    2    1         0.5544586250E-03      0.2676166232E-02
          0                 9           1             8    2     1       0.9599859233E-05       8    2    1         0.2492622154E-03      0.1199198234E-02

    ------------------------------------------------
       NWT REQUIRED            9 OUTER ITERATIONS 
       AND A TOTAL OF         14 INNER ITERATIONS.
    ------------------------------------------------

 NO OUTPUT CONTROL FOR STRESS PERIOD   13   TIME STEP   19
 
 SOLVING FOR HEAD 
                                                   Max.-Head-Change                         Max.-Flux-Residual
  Residual-Control   Outer-Iter.   Inner-Iter.     Column Row Layer    Maximum-Head-Change  Column Row Layer    Maximum-Flux-Residual          L2-NORM 
          0                 1           2             8    2     1       0.5752284426E-02       3   13    1         0.2760916329E+00      0.1787465230E+01
          0                 2           2             8    2     1       0.2586013441E-02       8    2    1         0.6714587695E-01      0.4318017172E+00
          0                 3           2             8    2     1       0.1162574072E-02       8    2    1         0.3018628720E-01      0.1559273659E+00
          0                 4           2             8    2     1       0.5226487468E-03       8    2    1         0.1357061292E-01      0.6698287816E-01
          0                 5           2             8    2     1       0.2349625329E-03       8    2    1         0.6100826075E-02      0.2980185874E-01
          0                 6           1             8    2     1       0.1056298670E-03       8    2    1         0.2742693280E-02      0.1333393560E-01
          0                 7           1             8    2     1       0.4748694857E-04       8    2    1         0.1233006187E-02      0.5971226222E-02
          0                 8           1             8    2     1       0.2134819709E-04       8    2    1         0.5543099587E-03      0.2674532822E-02
          0                 9           1             8    2     1       0.9597266457E-05       8    2    1         0.2491951092E-03      0.1198021034E-02

    ------------------------------------------------
       NWT REQUIRED            9 OUTER ITERATIONS 
       AND A TOTAL OF         14 INNER ITERATIONS.
    ------------------------------------------------

 NO OUTPUT CONTROL FOR STRESS PERIOD   13   TIME STEP   20
 
 SOLVING FOR HEAD 
                                                   Max.-Head-Change                         Max.-Flux-Residual
  Residual-Control   Outer-Iter.   Inner-Iter.     Column Row Layer    Maximum-Head-Change  Column Row Layer    Maximum-Flux-Residual          L2-NORM 
          0                 1           2             8    2     1       0.5750774208E-02       3   13    1         0.2737296890E+00      0.1787100921E+01
          0                 2           2             8    2     1       0.2585331656E-02       8    2    1         0.6712823484E-01      0.4316703144E+00
          0                 3           2             8    2     1       0.1162266291E-02       8    2    1         0.3017832274E-01      0.1558528809E+00
          0                 4           2             8    2     1       0.5225098080E-03       8    2    1         0.1356701750E-01      0.6694760081E-01
          0                 5           2             8    2     1       0.2348998147E-03       8    2    1         0.6099203040E-02      0.2978587701E-01
          0                 6           1             8    2     1       0.1056015564E-03       8    2    1         0.2741960635E-02      0.1332674671E-01
          0                 7           1             8    2     1       0.4747416965E-04       8    2    1         0.1232675477E-02      0.5967996305E-02
          0                 8           1             8    2     1       0.2134242928E-04       8    2    1         0.5541606857E-03      0.2673084518E-02
          0                 9           1             8    2     1       0.9594663051E-05       8    2    1         0.2491277314E-03      0.1197374332E-02

    ------------------------------------------------
       NWT REQUIRED            9 OUTER ITERATIONS 
       AND A TOTAL OF         14 INNER ITERATIONS.
    ------------------------------------------------

 NO OUTPUT CONTROL FOR STRESS PERIOD   13   TIME STEP   21
 
 SOLVING FOR HEAD 
                                                   Max.-Head-Change                         Max.-Flux-Residual
  Residual-Control   Outer-Iter.   Inner-Iter.     Column Row Layer    Maximum-Head-Change  Column Row Layer    Maximum-Flux-Residual          L2-NORM 
          0                 1           2             8    2     1       0.5749257251E-02       3   13    1         0.2714569028E+00      0.1786646995E+01
          0                 2           2             8    2     1       0.2584646860E-02       8    2    1         0.6711051414E-01      0.4315189351E+00
          0                 3           2             8    2     1       0.1161957164E-02       8    2    1         0.3017032317E-01      0.1557771107E+00
          0                 4           2             8    2     1       0.5223702678E-03       8    2    1         0.1356340640E-01      0.6691226529E-01
          0                 5           2             8    2     1       0.2348368281E-03       8    2    1         0.6097572993E-02      0.2976989741E-01
          0                 6           1             8    2     1       0.1055731257E-03       8    2    1         0.2741224853E-02      0.1331956140E-01
          0                 7           1             8    2     1       0.4746133757E-04       8    2    1         0.1232343368E-02      0.5964768855E-02
          0                 8           1             8    2     1       0.2133663721E-04       8    2    1         0.5540107797E-03      0.2671633742E-02
          0                 9           1             8    2     1       0.9592048640E-05       8    2    1         0.2490600705E-03      0.1196722718E-02

    ------------------------------------------------
       NWT REQUIRED            9 OUTER ITERATIONS 
       AND A TOTAL OF         14 INNER ITERATIONS.
    ------------------------------------------------

 NO OUTPUT CONTROL FOR STRESS PERIOD   13   TIME STEP   22
 
 SOLVING FOR HEAD 
                                                   Max.-Head-Change                         Max.-Flux-Residual
  Residual-Control   Outer-Iter.   Inner-Iter.     Column Row Layer    Maximum-Head-Change  Column Row Layer    Maximum-Flux-Residual          L2-NORM 
          0                 1           2             8    2     1       0.5747733632E-02       3   13    1         0.2692366765E+00      0.1786177768E+01
          0                 2           2             8    2     1       0.2583959086E-02       8    2    1         0.6709271575E-01      0.4313676647E+00
          0                 3           2             8    2     1       0.1161646707E-02       8    2    1         0.3016228889E-01      0.1557021253E+00
          0                 4           2             8    2     1       0.5222301333E-03       8    2    1         0.1355977979E-01      0.6687692691E-01
          0                 5           2             8    2     1       0.2347735761E-03       8    2    1         0.6095936022E-02      0.2975389298E-01
          0                 6           1             8    2     1       0.1055445768E-03       8    2    1         0.2740485982E-02      0.1331236252E-01
          0                 7           1             8    2     1       0.4744845210E-04       8    2    1         0.1232009874E-02      0.5961533474E-02
          0                 8           1             8    2     1       0.2133082150E-04       8    2    1         0.5538602612E-03      0.2670181009E-02
          0                 9           1             8    2     1       0.9589424100E-05       8    2    1         0.2489921403E-03      0.1196069405E-02

    ------------------------------------------------
       NWT REQUIRED            9 OUTER ITERATIONS 
       AND A TOTAL OF         14 INNER ITERATIONS.
    ------------------------------------------------

 NO OUTPUT CONTROL FOR STRESS PERIOD   13   TIME STEP   23
 
 SOLVING FOR HEAD 
                                                   Max.-Head-Change                         Max.-Flux-Residual
  Residual-Control   Outer-Iter.   Inner-Iter.     Column Row Layer    Maximum-Head-Change  Column Row Layer    Maximum-Flux-Residual          L2-NORM 
          0                 1           2             8    2     1       0.5746203309E-02       8    5    1         0.2677395647E+00      0.1785796428E+01
          0                 2           2             8    2     1       0.2583268254E-02       8    2    1         0.6707483891E-01      0.4312312626E+00
          0                 3           2             8    2     1       0.1161334855E-02       8    2    1         0.3015421881E-01      0.1556266245E+00
          0                 4           2             8    2     1       0.5220893630E-03       8    2    1         0.1355613686E-01      0.6684151626E-01
          0                 5           2             8    2     1       0.2347100340E-03       8    2    1         0.6094291607E-02      0.2973786546E-01
          0                 6           1             8    2     1       0.1055158955E-03       8    2    1         0.2739743720E-02      0.1330515467E-01
          0                 7           1             8    2     1       0.4743550661E-04       8    2    1         0.1231674842E-02      0.5958368907E-02
          0                 8           1             8    2     1       0.2132497878E-04       8    2    1         0.5537090416E-03      0.2668946064E-02
          0                 9           1             8    2     1       0.9586787054E-05       8    2    1         0.2489238860E-03      0.1195900694E-02

    ------------------------------------------------
       NWT REQUIRED            9 OUTER ITERATIONS 
       AND A TOTAL OF         14 INNER ITERATIONS.
    ------------------------------------------------

 NO OUTPUT CONTROL FOR STRESS PERIOD   13   TIME STEP   24
 
 SOLVING FOR HEAD 
                                                   Max.-Head-Change                         Max.-Flux-Residual
  Residual-Control   Outer-Iter.   Inner-Iter.     Column Row Layer    Maximum-Head-Change  Column Row Layer    Maximum-Flux-Residual          L2-NORM 
          0                 1           2             8    2     1       0.5744666365E-02       8    5    1         0.2676798702E+00      0.1785386806E+01
          0                 2           2             8    2     1       0.2582574529E-02       8    2    1         0.6705688517E-01      0.4310959980E+00
          0                 3           2             8    2     1       0.1161021739E-02       8    2    1         0.3014611513E-01      0.1555522441E+00
          0                 4           2             8    2     1       0.5219480412E-03       8    2    1         0.1355247926E-01      0.6680619495E-01
          0                 5           2             8    2     1       0.2346462517E-03       8    2    1         0.6092640792E-02      0.2972186954E-01
          0                 6           1             8    2     1       0.1054871096E-03       8    2    1         0.2738998665E-02      0.1329796214E-01
          0                 7           1             8    2     1       0.4742251521E-04       8    2    1         0.1231338587E-02      0.5955064578E-02
          0                 8           1             8    2     1       0.2131911605E-04       8    2    1         0.5535572934E-03      0.2667471598E-02
          0                 9           1             8    2     1       0.9584141380E-05       8    2    1         0.2488554046E-03      0.1194763849E-02

    ------------------------------------------------
       NWT REQUIRED            9 OUTER ITERATIONS 
       AND A TOTAL OF         14 INNER ITERATIONS.
    ------------------------------------------------

 NO OUTPUT CONTROL FOR STRESS PERIOD   13   TIME STEP   25
 
 SOLVING FOR HEAD 
                                                   Max.-Head-Change                         Max.-Flux-Residual
  Residual-Control   Outer-Iter.   Inner-Iter.     Column Row Layer    Maximum-Head-Change  Column Row Layer    Maximum-Flux-Residual          L2-NORM 
          0                 1           2             8    2     1       0.5743122877E-02       8    5    1         0.2676197010E+00      0.1784465434E+01
          0                 2           2             8    2     1       0.2581877816E-02       8    2    1         0.6703885482E-01      0.4308619103E+00
          0                 3           2             8    2     1       0.1160707261E-02       8    2    1         0.3013797649E-01      0.1554664016E+00
          0                 4           2             8    2     1       0.5218060976E-03       8    2    1         0.1354880569E-01      0.6676988706E-01
          0                 5           2             8    2     1       0.2345821858E-03       8    2    1         0.6090982696E-02      0.2970578225E-01
          0                 6           1             8    2     1       0.1054581944E-03       8    2    1         0.2738250290E-02      0.1329075512E-01
          0                 7           1             8    2     1       0.4740946517E-04       8    2    1         0.1231000822E-02      0.5951828555E-02
          0                 8           1             8    2     1       0.2131322631E-04       8    2    1         0.5534048523E-03      0.2665823426E-02
          0                 9           1             8    2     1       0.9581483200E-05       8    2    1         0.2487866091E-03      0.1194119300E-02

    ------------------------------------------------
       NWT REQUIRED            9 OUTER ITERATIONS 
       AND A TOTAL OF         14 INNER ITERATIONS.
    ------------------------------------------------

 NO OUTPUT CONTROL FOR STRESS PERIOD   13   TIME STEP   26
 
 SOLVING FOR HEAD 
                                                   Max.-Head-Change                         Max.-Flux-Residual
  Residual-Control   Outer-Iter.   Inner-Iter.     Column Row Layer    Maximum-Head-Change  Column Row Layer    Maximum-Flux-Residual          L2-NORM 
          0                 1           2             8    2     1       0.5741572848E-02       8    5    1         0.2675590961E+00      0.1783871813E+01
          0                 2           2             8    2     1       0.2581178204E-02       8    2    1         0.6702074833E-01      0.4306898536E+00
          0                 3           2             8    2     1       0.1160391497E-02       8    2    1         0.3012980409E-01      0.1553886647E+00
          0                 4           2             8    2     1       0.5216635847E-03       8    2    1         0.1354511717E-01      0.6673439159E-01
          0                 5           2             8    2     1       0.2345178672E-03       8    2    1         0.6089317970E-02      0.2968978591E-01
          0                 6           1             8    2     1       0.1054291674E-03       8    2    1         0.2737498980E-02      0.1328356486E-01
          0                 7           1             8    2     1       0.4739636573E-04       8    2    1         0.1230661756E-02      0.5948597763E-02
          0                 8           1             8    2     1       0.2130731481E-04       8    2    1         0.5532518350E-03      0.2664369168E-02
          0                 9           1             8    2     1       0.9578815765E-05       8    2    1         0.2487175548E-03      0.1193459319E-02

    ------------------------------------------------
       NWT REQUIRED            9 OUTER ITERATIONS 
       AND A TOTAL OF         14 INNER ITERATIONS.
    ------------------------------------------------

 NO OUTPUT CONTROL FOR STRESS PERIOD   13   TIME STEP   27
 
 SOLVING FOR HEAD 
                                                   Max.-Head-Change                         Max.-Flux-Residual
  Residual-Control   Outer-Iter.   Inner-Iter.     Column Row Layer    Maximum-Head-Change  Column Row Layer    Maximum-Flux-Residual          L2-NORM 
          0                 1           2             8    2     1       0.5740016358E-02       8    5    1         0.2675033059E+00      0.1783461342E+01
          0                 2           2             8    2     1       0.2580475684E-02       8    2    1         0.6700256639E-01      0.4305521061E+00
          0                 3           2             8    2     1       0.1160074425E-02       8    2    1         0.3012159774E-01      0.1553135753E+00
          0                 4           2             8    2     1       0.5215204824E-03       8    2    1         0.1354141337E-01      0.6669899717E-01
          0                 5           2             8    2     1       0.2344532839E-03       8    2    1         0.6087646369E-02      0.2967376105E-01
          0                 6           1             8    2     1       0.1054000211E-03       8    2    1         0.2736744571E-02      0.1327635730E-01
          0                 7           1             8    2     1       0.4738321239E-04       8    2    1         0.1230321294E-02      0.5945360180E-02
          0                 8           1             8    2     1       0.2130137905E-04       8    2    1         0.5530981901E-03      0.2662914343E-02
          0                 9           1             8    2     1       0.9576137201E-05       8    2    1         0.2486482186E-03      0.1192802434E-02

    ------------------------------------------------
       NWT REQUIRED            9 OUTER ITERATIONS 
       AND A TOTAL OF         14 INNER ITERATIONS.
    ------------------------------------------------

 NO OUTPUT CONTROL FOR STRESS PERIOD   13   TIME STEP   28
 
 SOLVING FOR HEAD 
                                                   Max.-Head-Change                         Max.-Flux-Residual
  Residual-Control   Outer-Iter.   Inner-Iter.     Column Row Layer    Maximum-Head-Change  Column Row Layer    Maximum-Flux-Residual          L2-NORM 
          0                 1           2             8    2     1       0.5738453407E-02       8    5    1         0.2674419032E+00      0.1783091029E+01
          0                 2           2             8    2     1       0.2579770259E-02       8    2    1         0.6698430904E-01      0.4304101308E+00
          0                 3           2             8    2     1       0.1159756046E-02       8    2    1         0.3011335747E-01      0.1552378512E+00
          0                 4           2             8    2     1       0.5213767936E-03       8    2    1         0.1353769433E-01      0.6666364372E-01
          0                 5           2             8    2     1       0.2343884367E-03       8    2    1         0.6085967914E-02      0.2965779116E-01
          0                 6           1             8    2     1       0.1053707562E-03       8    2    1         0.2735987083E-02      0.1326917842E-01
          0                 7           1             8    2     1       0.4737000553E-04       8    2    1         0.1229979447E-02      0.5942134668E-02
          0                 8           1             8    2     1       0.2129541941E-04       8    2    1         0.5529439265E-03      0.2661466093E-02
          0                 9           1             8    2     1       0.9573447757E-05       8    2    1         0.2485786075E-03      0.1192151976E-02

    ------------------------------------------------
       NWT REQUIRED            9 OUTER ITERATIONS 
       AND A TOTAL OF         14 INNER ITERATIONS.
    ------------------------------------------------

 NO OUTPUT CONTROL FOR STRESS PERIOD   13   TIME STEP   29
 
 SOLVING FOR HEAD 
                                                   Max.-Head-Change                         Max.-Flux-Residual
  Residual-Control   Outer-Iter.   Inner-Iter.     Column Row Layer    Maximum-Head-Change  Column Row Layer    Maximum-Flux-Residual          L2-NORM 
          0                 1           2             8    2     1       0.5736840177E-02       8    5    1         0.2673802470E+00      0.1782722045E+01
          0                 2           2             8    2     1       0.2579042308E-02       8    2    1         0.6696546514E-01      0.4302694005E+00
          0                 3           2             8    2     1       0.1159427576E-02       8    2    1         0.3010485444E-01      0.1551623303E+00
          0                 4           2             8    2     1       0.5212285830E-03       8    2    1         0.1353385755E-01      0.6662829274E-01
          0                 5           2             8    2     1       0.2343215638E-03       8    2    1         0.6084236719E-02      0.2964180618E-01
          0                 6           1             8    2     1       0.1053405840E-03       8    2    1         0.2735205971E-02      0.1326199225E-01
          0                 7           1             8    2     1       0.4735639273E-04       8    2    1         0.1229627021E-02      0.5938906624E-02
          0                 8           1             8    2     1       0.2128927768E-04       8    2    1         0.5527849173E-03      0.2660169311E-02
          0                 9           1             8    2     1       0.9570676902E-05       8    2    1         0.2485068658E-03      0.1191886174E-02

    ------------------------------------------------
       NWT REQUIRED            9 OUTER ITERATIONS 
       AND A TOTAL OF         14 INNER ITERATIONS.
    ------------------------------------------------

 NO OUTPUT CONTROL FOR STRESS PERIOD   13   TIME STEP   30



 STREAM LISTING     PERIOD     13   STEP       30

 LAYER ROW COL. STREAM  RCH.  FLOW INTO     FLOW TO   FLOW OUT OF   OVRLND.     DIRECT     STREAM       STREAM     STREAM     STREAM   STREAMBED  STREAMBED
                SEG.NO.  NO.  STRM. RCH.    AQUIFER    STRM. RCH.    RUNOFF     PRECIP       ET          HEAD       DEPTH      WIDTH   CONDCTNC.   GRADIENT

   1    1    1     1     1    3.1000E+00  7.9303E-10   3.1000E+00  0.000E+00  0.000E+00  0.000E+00  1.09369E+03  6.377E-01  4.844E+00  2.180E-10  1.213E+00
   1    2    2     1     2    3.1000E+00  1.2301E-10   3.1000E+00  0.000E+00  0.000E+00  0.000E+00  1.08869E+03  6.361E-01  4.833E+00  3.383E-11  1.212E+00
   1    3    3     1     3    3.1000E+00  1.0556E-10   3.1000E+00  0.000E+00  0.000E+00  0.000E+00  1.08306E+03  6.368E-01  4.838E+00  2.903E-11  1.212E+00
   1    3    4     1     4    3.1000E+00  9.7691E-11   3.1000E+00  0.000E+00  0.000E+00  0.000E+00  1.07804E+03  6.371E-01  4.840E+00  2.686E-11  1.212E+00
   1    4    5     2     1    1.1000E+00  2.4746E-01   8.5254E-01  0.000E+00  0.000E+00  0.000E+00  1.07211E+03  1.725E-01  1.200E+01  7.800E-02  1.058E+00
   1    5    6     2     2    8.5254E-01  1.8889E-01   6.6365E-01  0.000E+00  0.000E+00  0.000E+00  1.06666E+03  1.482E-01  1.200E+01  6.000E-02  1.049E+00
   1    6    6     2     3    6.6365E-01  1.8750E-01   4.7615E-01  0.000E+00  0.000E+00  0.000E+00  1.06192E+03  1.249E-01  1.200E+01  6.000E-02  1.042E+00
   1    7    6     2     4    4.7615E-01  1.8591E-01   2.9025E-01  0.000E+00  0.000E+00  0.000E+00  1.05717E+03  9.845E-02  1.200E+01  6.000E-02  1.033E+00
   1    8    6     2     5    2.9025E-01  1.8398E-01   1.0627E-01  0.000E+00  0.000E+00  0.000E+00  1.05242E+03  6.630E-02  1.200E+01  6.000E-02  1.022E+00
   1    3    5     3     1    2.0000E+00  2.8252E-01   1.7175E+00  0.000E+00  0.000E+00  0.000E+00  1.07555E+03  1.909E+00  9.636E+00  7.227E-02  1.955E+00
   1    3    6     3     2    1.7175E+00  2.4905E-01   1.4684E+00  0.000E+00  0.000E+00  0.000E+00  1.07264E+03  1.727E+00  8.909E+00  6.682E-02  1.864E+00
   1    3    7     3     3    1.4684E+00  1.9718E-01   1.2712E+00  0.000E+00  0.000E+00  0.000E+00  1.06987E+03  1.555E+00  8.218E+00  5.547E-02  1.777E+00
   1    4    8     3     4    1.2712E+00  2.2567E-01   1.0456E+00  0.000E+00  0.000E+00  0.000E+00  1.06682E+03  1.364E+00  7.455E+00  6.709E-02  1.682E+00
   1    5    8     3     5    1.0456E+00  1.5790E-01   8.8768E-01  0.000E+00  0.000E+00  0.000E+00  1.06362E+03  1.164E+00  6.655E+00  4.991E-02  1.582E+00
   1    6    8     3     6    8.8768E-01  5.5980E-02   8.3170E-01  0.000E+00  0.000E+00  0.000E+00  1.06158E+03  1.036E+00  6.145E+00  1.844E-02  1.518E+00
   1    5   10     4     1    1.0000E+01  9.0919E-02   9.9091E+00  0.000E+00  0.000E+00  0.000E+00  1.07836E+03  6.368E-01  1.000E+01  2.500E-02  1.212E+00
   1    5    9     4     2    9.9091E+00  1.8158E-01   9.7275E+00  0.000E+00  0.000E+00  0.000E+00  1.07154E+03  6.315E-01  1.000E+01  5.000E-02  1.211E+00
   1    6    8     4     3    9.7275E+00  1.2689E-01   9.6006E+00  0.000E+00  0.000E+00  0.000E+00  1.06381E+03  6.256E-01  1.000E+01  3.500E-02  1.209E+00
   1    6    8     5     1    1.0432E+01  2.2686E-09   1.0432E+01  0.000E+00  0.000E+00  0.000E+00  1.05868E+03  6.790E-01  1.542E+01  6.166E-10  1.226E+00
   1    7    7     5     2    1.0432E+01  2.8306E-09   1.0432E+01  0.000E+00  0.000E+00  0.000E+00  1.05418E+03  6.784E-01  1.539E+01  7.695E-10  1.226E+00
   1    8    7     5     3    1.0432E+01  1.9868E-09   1.0432E+01  0.000E+00  0.000E+00  0.000E+00  1.04993E+03  6.794E-01  1.543E+01  5.400E-10  1.226E+00
   1    8    6     5     4    1.0432E+01  1.4217E-09   1.0432E+01  0.000E+00  0.000E+00  0.000E+00  1.04693E+03  6.800E-01  1.545E+01  3.863E-10  1.227E+00
   1    9    6     6     1    1.0539E+01  2.2335E-01   1.0315E+01  0.000E+00  0.000E+00  0.000E+00  1.04345E+03  7.225E-01  1.200E+01  6.000E-02  1.241E+00
   1   10    7     6     2    1.0315E+01  2.2279E-01   1.0092E+01  0.000E+00  0.000E+00  0.000E+00  1.03890E+03  7.132E-01  1.200E+01  6.000E-02  1.238E+00
   1   11    7     6     3    1.0092E+01  2.2223E-01   9.8702E+00  0.000E+00  0.000E+00  0.000E+00  1.03434E+03  7.039E-01  1.200E+01  6.000E-02  1.235E+00
   1   12    7     6     4    9.8702E+00  2.2167E-01   9.6485E+00  0.000E+00  0.000E+00  0.000E+00  1.02979E+03  6.944E-01  1.200E+01  6.000E-02  1.231E+00
   1   13    7     6     5    9.6485E+00  8.8507E-02   9.5600E+00  0.000E+00  0.000E+00  0.000E+00  1.02660E+03  6.878E-01  1.200E+01  2.400E-02  1.229E+00
   1   14    9     7     1    1.5000E+02  2.9539E-08   1.5000E+02  0.000E+00  0.000E+00  0.000E+00  1.03986E+03  2.283E+00  5.528E+01  5.591E-09  1.761E+00
   1   13    8     7     2    1.5000E+02  3.2486E-14   1.5000E+02  0.000E+00  0.000E+00  0.000E+00  1.03478E+03  2.283E+00  5.527E+01  6.150E-15  1.761E+00
   1   13    7     7     3    1.5000E+02  2.9539E-08   1.5000E+02  0.000E+00  0.000E+00  0.000E+00  1.02970E+03  2.283E+00  5.528E+01  5.591E-09  1.761E+00
   1   13    6     8     1    1.5956E+02  2.4950E-13   1.5956E+02  0.000E+00  0.000E+00  0.000E+00  1.02475E+03  2.874E+00  4.168E+01  4.247E-14  1.958E+00
   1   13    5     8     2    1.5956E+02  2.4950E-09   1.5956E+02  0.000E+00  0.000E+00  0.000E+00  1.01850E+03  2.874E+00  4.168E+01  4.247E-10  1.958E+00
   1   13    4     8     3    1.5956E+02  1.8605E-10   1.5956E+02  0.000E+00  0.000E+00  0.000E+00  1.01225E+03  2.877E+00  4.171E+01  4.250E-11  1.459E+00
   1   13    3     8     4    1.5956E+02  3.1613E-06   1.5956E+02  0.000E+00  0.000E+00  0.000E+00  1.00601E+03  2.882E+00  4.179E+01  4.258E-06  2.475E-01
   1   13    2     8     5    1.5956E+02 -1.5637E+00   1.6112E+02  0.000E+00  0.000E+00  0.000E+00  9.99763E+02  2.888E+00  4.188E+01  4.268E+00 -1.221E-01
   1   13    1     8     6    1.6112E+02 -1.8413E+00   1.6296E+02  0.000E+00  0.000E+00  0.000E+00  9.94775E+02  2.900E+00  4.204E+01  2.571E+00 -2.388E-01
   1    6    8     9     1    0.0000E+00  0.0000E+00   0.0000E+00  0.000E+00  0.000E+00  0.000E+00  1.07850E+03  0.000E+00  4.000E+00  0.000E+00  1.000E+00





UNSATURATED ZONE PACKAGE VOLUMETRIC BUDGET FOR  TIME STEP    30 STRESS PERIOD   13
  ------------------------------------------------------------------------------



     CUMULATIVE VOLUMES      L**3       RATES FOR THIS TIME STEP      L**3/T
     ------------------                 ------------------------

           IN:                                      IN:
           ---                                      ---
        INFILTRATION =    59000553.1201          INFILTRATION =           0.8475

          OUT:                                     OUT:
          ----                                     ----
              UZF ET =   563921376.9365                UZF ET =           0.0114
        UZF RECHARGE =   859067349.8309          UZF RECHARGE =          25.7637

            IN - OUT = -1363988173.6473              IN - OUT =         -24.9276

          STORAGE:                                 STORAGE:
          --------                                 --------
      STORAGE CHANGE = -1363980386.0139        STORAGE CHANGE =         -24.9276

 PERCENT DISCREPANCY IS DIFFERENCE BETWEEN IN-OUT MINUS CHANGE IN STORAGE
 DIVIDED BY THE AVERAGE OF IN AND OUT TIMES 100

 PERCENT DISCREPANCY =          -0.00     PERCENT DISCREPANCY =           0.00






1
  VOLUMETRIC BUDGET FOR ENTIRE MODEL AT END OF TIME STEP   30, STRESS PERIOD  13
  ------------------------------------------------------------------------------

     CUMULATIVE VOLUMES      L**3       RATES FOR THIS TIME STEP      L**3/T
     ------------------                 ------------------------

           IN:                                      IN:
           ---                                      ---
             STORAGE =    16149497.0000               STORAGE =           0.0000
       CONSTANT HEAD =           0.0000         CONSTANT HEAD =           0.0000
               WELLS =           0.0000                 WELLS =           0.0000
     HEAD DEP BOUNDS =    35681136.0000       HEAD DEP BOUNDS =           1.0138
      STREAM LEAKAGE =   132452200.0000        STREAM LEAKAGE =           3.5400
        UZF RECHARGE =   859067712.0000          UZF RECHARGE =          25.7637
               GW ET =           0.0000                 GW ET =           0.0000
     SURFACE LEAKAGE =           0.0000       SURFACE LEAKAGE =           0.0000

            TOTAL IN =  1043350528.0000              TOTAL IN =          30.3174

          OUT:                                     OUT:
          ----                                     ----
             STORAGE =   915049088.0000               STORAGE =          26.6164
       CONSTANT HEAD =           0.0000         CONSTANT HEAD =           0.0000
               WELLS =     1059111.1250                 WELLS =           0.0000
     HEAD DEP BOUNDS =     9687726.0000       HEAD DEP BOUNDS =           0.2847
      STREAM LEAKAGE =    80016664.0000        STREAM LEAKAGE =           3.4050
        UZF RECHARGE =           0.0000          UZF RECHARGE =           0.0000
               GW ET =    37448824.0000                 GW ET =       7.4119E-03
     SURFACE LEAKAGE =           0.0000       SURFACE LEAKAGE =           0.0000

           TOTAL OUT =  1043261440.0000             TOTAL OUT =          30.3135

            IN - OUT =       89088.0000              IN - OUT =       3.9597E-03

 PERCENT DISCREPANCY =           0.01     PERCENT DISCREPANCY =           0.01






         TIME SUMMARY AT END OF TIME STEP   30 IN STRESS PERIOD   13
                    SECONDS     MINUTES      HOURS       DAYS        YEARS
                    -----------------------------------------------------------
   TIME STEP LENGTH  87600.      1460.0      24.333      1.0139     2.77588E-03
 STRESS PERIOD TIME 2.62800E+06  43800.      730.00      30.417     8.32763E-02
         TOTAL TIME 3.41640E+07 5.69400E+05  9490.0      395.42      1.0826    
1
1
                            STRESS PERIOD NO.   14, LENGTH =   2628000.    
                            -----------------------------------------------

                              NUMBER OF TIME STEPS =    30

                               MULTIPLIER FOR DELT =     1.000

                            INITIAL TIME STEP SIZE =   87600.00    

 WELL NO.  LAYER   ROW   COL   STRESS RATE         
 --------------------------------------------------
      1      1      6      4       0.000    
      2      1      6      7       0.000    
      3      1      7      4       0.000    
      4      1      7      5       0.000    
      5      1      8      4       0.000    
      6      1      8      5       0.000    
      7      1      9      4       0.000    
      8      1      9      5       0.000    
      9      1     10      4       0.000    
     10      1     10      5       0.000    

     10 WELLS

 REUSING NON-PARAMETER GHB CELLS FROM LAST STRESS PERIOD

      2 GHB CELLS

 REUSING STREAM SEGMENT DATA FROM LAST STRESS PERIOD



            AREAL INFILTRATION RATE
 READING ON UNIT   19 WITH FORMAT: (10F4.0)            

            1           2           3           4           5           6           7           8           9          10
 ........................................................................................................................
   1   1.0000E-10  2.0000E-10   0.000       0.000       0.000       0.000       0.000       0.000       0.000       0.000    
   2   2.0000E-10  1.0000E-10  2.0000E-10   0.000       0.000      8.0000E-10  8.0000E-10  5.0000E-10   0.000       0.000    
   3    0.000      5.0000E-10  1.0000E-10  1.0000E-10  8.0000E-10  8.0000E-10  5.0000E-10  5.0000E-10   0.000       0.000    
   4   8.0000E-10  5.0000E-10  1.0000E-10  1.0000E-10  1.0000E-10  1.0000E-10  1.0000E-10  1.0000E-10  2.0000E-10   0.000    
   5   8.0000E-10  5.0000E-10  1.0000E-10  1.0000E-10  1.0000E-10  1.0000E-10  1.0000E-10  1.0000E-10  1.0000E-10  1.0000E-10
   6   8.0000E-10  5.0000E-10  5.0000E-10  2.0000E-10  2.0000E-10  1.0000E-10  1.0000E-10  1.0000E-10  1.0000E-10  5.0000E-10
   7   8.0000E-10  5.0000E-10  5.0000E-10  2.0000E-10  2.0000E-10  1.0000E-10  1.0000E-10  2.0000E-10  2.0000E-10   0.000    
   8    0.000      5.0000E-10  5.0000E-10  2.0000E-10  2.0000E-10  1.0000E-10  1.0000E-10  2.0000E-10  5.0000E-10   0.000    
   9    0.000      5.0000E-10  5.0000E-10  2.0000E-10  2.0000E-10  1.0000E-10  1.0000E-10  2.0000E-10  5.0000E-10   0.000    
  10    0.000      5.0000E-10  5.0000E-10  2.0000E-10  2.0000E-10  1.0000E-10  1.0000E-10  2.0000E-10  5.0000E-10  8.0000E-10
  11    0.000      1.0000E-10  1.0000E-10  1.0000E-10  1.0000E-10  1.0000E-10  1.0000E-10  2.0000E-10  5.0000E-10   0.000    
  12   1.0000E-10  1.0000E-10  1.0000E-10  1.0000E-10  1.0000E-10  1.0000E-10  1.0000E-10  1.0000E-10  2.0000E-10   0.000    
  13   1.0000E-10  1.0000E-10  2.0000E-10  2.0000E-10  2.0000E-10  2.0000E-10  2.0000E-10  1.0000E-10  1.0000E-10   0.000    
  14    0.000      2.0000E-10  5.0000E-10  5.0000E-10  5.0000E-10  5.0000E-10  5.0000E-10  2.0000E-10  1.0000E-10   0.000    
  15    0.000       0.000      8.0000E-10  8.0000E-10  8.0000E-10  8.0000E-10   0.000       0.000       0.000       0.000    

                  ET RATE =  1.000000E-10

 USING ET EXTINCTION DEPTH FROM PREVIOUS STRESS PERIOD. CURRENT PERIOD IS:      14

 USING EXTINCTION WATER CONTENT FROM PREVIOUS STRESS PERIOD. CURRENT PERIOD IS:      14
 
 SOLVING FOR HEAD 
                                                   Max.-Head-Change                         Max.-Flux-Residual
  Residual-Control   Outer-Iter.   Inner-Iter.     Column Row Layer    Maximum-Head-Change  Column Row Layer    Maximum-Flux-Residual          L2-NORM 
          0                 1           2             8    2     1       0.5735264718E-02       5    4    1         0.2799535718E+00      0.1807990624E+01
          0                 2           2             8    2     1       0.2578331277E-02       8    2    1         0.6694706187E-01      0.4328123329E+00
          0                 3           2             8    2     1       0.1159106684E-02       8    2    1         0.3009654877E-01      0.1553062445E+00
          0                 4           2             8    2     1       0.5210837677E-03       8    2    1         0.1353010919E-01      0.6661243559E-01
          0                 5           2             8    2     1       0.2342562118E-03       8    2    1         0.6082545128E-02      0.2962906237E-01
          0                 6           1             8    2     1       0.1053110930E-03       8    2    1         0.2734442598E-02      0.1325586954E-01
          0                 7           1             8    2     1       0.4734308470E-04       8    2    1         0.1229282538E-02      0.5936215654E-02
          0                 8           1             8    2     1       0.2128327251E-04       8    2    1         0.5526294702E-03      0.2658989986E-02
          0                 9           1             8    2     1       0.9567967324E-05       8    2    1         0.2484367243E-03      0.1190942001E-02

    ------------------------------------------------
       NWT REQUIRED            9 OUTER ITERATIONS 
       AND A TOTAL OF         14 INNER ITERATIONS.
    ------------------------------------------------

 NO OUTPUT CONTROL FOR STRESS PERIOD   14   TIME STEP    1
 
 SOLVING FOR HEAD 
                                                   Max.-Head-Change                         Max.-Flux-Residual
  Residual-Control   Outer-Iter.   Inner-Iter.     Column Row Layer    Maximum-Head-Change  Column Row Layer    Maximum-Flux-Residual          L2-NORM 
          0                 1           2             8    2     1       0.5733639049E-02       5    4    1         0.2903778549E+00      0.1825574878E+01
          0                 2           2             8    2     1       0.2577597754E-02       8    2    1         0.6692807288E-01      0.4342781544E+00
          0                 3           2             8    2     1       0.1158775718E-02       8    2    1         0.3008798073E-01      0.1553576440E+00
          0                 4           2             8    2     1       0.5209344392E-03       8    2    1         0.1352624330E-01      0.6659127292E-01
          0                 5           2             8    2     1       0.2341888381E-03       8    2    1         0.6080800887E-02      0.2961660288E-01
          0                 6           1             8    2     1       0.1052806961E-03       8    2    1         0.2733655640E-02      0.1325003646E-01
          0                 7           1             8    2     1       0.4732937123E-04       8    2    1         0.1228927495E-02      0.5933475576E-02
          0                 8           1             8    2     1       0.2127708589E-04       8    2    1         0.5524692929E-03      0.2657564600E-02
          0                 9           1             8    2     1       0.9565176335E-05       8    2    1         0.2483644611E-03      0.1190395333E-02

    ------------------------------------------------
       NWT REQUIRED            9 OUTER ITERATIONS 
       AND A TOTAL OF         14 INNER ITERATIONS.
    ------------------------------------------------

 NO OUTPUT CONTROL FOR STRESS PERIOD   14   TIME STEP    2
 
 SOLVING FOR HEAD 
                                                   Max.-Head-Change                         Max.-Flux-Residual
  Residual-Control   Outer-Iter.   Inner-Iter.     Column Row Layer    Maximum-Head-Change  Column Row Layer    Maximum-Flux-Residual          L2-NORM 
          0                 1           2             8    2     1       0.5732051292E-02       5    4    1         0.2887197449E+00      0.1823525247E+01
          0                 2           2             8    2     1       0.2576881233E-02       8    2    1         0.6690952623E-01      0.4340739139E+00
          0                 3           2             8    2     1       0.1158452376E-02       8    2    1         0.3007961106E-01      0.1552917744E+00
          0                 4           2             8    2     1       0.5207885298E-03       8    2    1         0.1352246637E-01      0.6656193598E-01
          0                 5           2             8    2     1       0.2341229979E-03       8    2    1         0.6079096538E-02      0.2960330661E-01
          0                 6           1             8    2     1       0.1052509870E-03       8    2    1         0.2732886568E-02      0.1324405093E-01
          0                 7           1             8    2     1       0.4731596591E-04       8    2    1         0.1228580465E-02      0.5930777419E-02
          0                 8           1             8    2     1       0.2127103721E-04       8    2    1         0.5523127049E-03      0.2656347297E-02
          0                 9           1             8    2     1       0.9562447248E-05       8    2    1         0.2482938081E-03      0.1189846563E-02

    ------------------------------------------------
       NWT REQUIRED            9 OUTER ITERATIONS 
       AND A TOTAL OF         14 INNER ITERATIONS.
    ------------------------------------------------

 NO OUTPUT CONTROL FOR STRESS PERIOD   14   TIME STEP    3
 
 SOLVING FOR HEAD 
                                                   Max.-Head-Change                         Max.-Flux-Residual
  Residual-Control   Outer-Iter.   Inner-Iter.     Column Row Layer    Maximum-Head-Change  Column Row Layer    Maximum-Flux-Residual          L2-NORM 
          0                 1           2             8    2     1       0.5730413354E-02       5    4    1         0.2871860483E+00      0.1821646902E+01
          0                 2           2             8    2     1       0.2576142168E-02       8    2    1         0.6689039389E-01      0.4338816625E+00
          0                 3           2             8    2     1       0.1158118907E-02       8    2    1         0.3007097828E-01      0.1552263621E+00
          0                 4           2             8    2     1       0.5206380717E-03       8    2    1         0.1351857125E-01      0.6653225950E-01
          0                 5           2             8    2     1       0.2340551138E-03       8    2    1         0.6077339094E-02      0.2958987260E-01
          0                 6           1             8    2     1       0.1052203600E-03       8    2    1         0.2732093650E-02      0.1323798888E-01
          0                 7           1             8    2     1       0.4730214827E-04       8    2    1         0.1228222729E-02      0.5928043023E-02
          0                 8           1             8    2     1       0.2126480356E-04       8    2    1         0.5521513146E-03      0.2655115381E-02
          0                 9           1             8    2     1       0.9559635125E-05       8    2    1         0.2482209999E-03      0.1189291335E-02

    ------------------------------------------------
       NWT REQUIRED            9 OUTER ITERATIONS 
       AND A TOTAL OF         14 INNER ITERATIONS.
    ------------------------------------------------

 NO OUTPUT CONTROL FOR STRESS PERIOD   14   TIME STEP    4
 
 SOLVING FOR HEAD 
                                                   Max.-Head-Change                         Max.-Flux-Residual
  Residual-Control   Outer-Iter.   Inner-Iter.     Column Row Layer    Maximum-Head-Change  Column Row Layer    Maximum-Flux-Residual          L2-NORM 
          0                 1           2             8    2     1       0.5728813385E-02       5    4    1         0.2857604576E+00      0.1820140456E+01
          0                 2           2             8    2     1       0.2575420196E-02       8    2    1         0.6687170488E-01      0.4337183430E+00
          0                 3           2             8    2     1       0.1157793132E-02       8    2    1         0.3006254507E-01      0.1551629150E+00
          0                 4           2             8    2     1       0.5204910767E-03       8    2    1         0.1351476595E-01      0.6650274073E-01
          0                 5           2             8    2     1       0.2339887889E-03       8    2    1         0.6075622093E-02      0.2957646541E-01
          0                 6           1             8    2     1       0.1051904348E-03       8    2    1         0.2731318936E-02      0.1323193769E-01
          0                 7           1             8    2     1       0.4728864665E-04       8    2    1         0.1227873186E-02      0.5925314951E-02
          0                 8           1             8    2     1       0.2125871211E-04       8    2    1         0.5519936073E-03      0.2653885977E-02
          0                 9           1             8    2     1       0.9556886654E-05       8    2    1         0.2481498459E-03      0.1188737707E-02

    ------------------------------------------------
       NWT REQUIRED            9 OUTER ITERATIONS 
       AND A TOTAL OF         14 INNER ITERATIONS.
    ------------------------------------------------

 NO OUTPUT CONTROL FOR STRESS PERIOD   14   TIME STEP    5
 
 SOLVING FOR HEAD 
                                                   Max.-Head-Change                         Max.-Flux-Residual
  Residual-Control   Outer-Iter.   Inner-Iter.     Column Row Layer    Maximum-Head-Change  Column Row Layer    Maximum-Flux-Residual          L2-NORM 
          0                 1           2             8    2     1       0.5727163384E-02       5    4    1         0.2844339898E+00      0.1818525807E+01
          0                 2           2             8    2     1       0.2574675749E-02       8    2    1         0.6685243192E-01      0.4334767177E+00
          0                 3           2             8    2     1       0.1157457262E-02       8    2    1         0.3005384954E-01      0.1550886207E+00
          0                 4           2             8    2     1       0.5203395463E-03       8    2    1         0.1351084283E-01      0.6647187416E-01
          0                 5           2             8    2     1       0.2339204273E-03       8    2    1         0.6073852163E-02      0.2956278741E-01
          0                 6           1             8    2     1       0.1051595945E-03       8    2    1         0.2730520442E-02      0.1322579387E-01
          0                 7           1             8    2     1       0.4727473385E-04       8    2    1         0.1227512960E-02      0.5922548502E-02
          0                 8           1             8    2     1       0.2125243582E-04       8    2    1         0.5518311015E-03      0.2652639811E-02
          0                 9           1             8    2     1       0.9554055772E-05       8    2    1         0.2480765395E-03      0.1188176127E-02

    ------------------------------------------------
       NWT REQUIRED            9 OUTER ITERATIONS 
       AND A TOTAL OF         14 INNER ITERATIONS.
    ------------------------------------------------

 NO OUTPUT CONTROL FOR STRESS PERIOD   14   TIME STEP    6
 
 SOLVING FOR HEAD 
                                                   Max.-Head-Change                         Max.-Flux-Residual
  Residual-Control   Outer-Iter.   Inner-Iter.     Column Row Layer    Maximum-Head-Change  Column Row Layer    Maximum-Flux-Residual          L2-NORM 
          0                 1           2             8    2     1       0.5725551453E-02       5    4    1         0.2832110850E+00      0.1816561261E+01
          0                 2           2             8    2     1       0.2573948397E-02       8    2    1         0.6683360327E-01      0.4332359032E+00
          0                 3           2             8    2     1       0.1157129068E-02       8    2    1         0.3004535354E-01      0.1550168942E+00
          0                 4           2             8    2     1       0.5201914640E-03       8    2    1         0.1350700931E-01      0.6644103708E-01
          0                 5           2             8    2     1       0.2338536137E-03       8    2    1         0.6072122468E-02      0.2954896930E-01
          0                 6           1             8    2     1       0.1051294496E-03       8    2    1         0.2729740023E-02      0.1321957398E-01
          0                 7           1             8    2     1       0.4726113356E-04       8    2    1         0.1227160850E-02      0.5919748791E-02
          0                 8           1             8    2     1       0.2124629972E-04       8    2    1         0.5516722406E-03      0.2651378639E-02
          0                 9           1             8    2     1       0.9551287418E-05       8    2    1         0.2480048695E-03      0.1187608277E-02

    ------------------------------------------------
       NWT REQUIRED            9 OUTER ITERATIONS 
       AND A TOTAL OF         14 INNER ITERATIONS.
    ------------------------------------------------

 NO OUTPUT CONTROL FOR STRESS PERIOD   14   TIME STEP    7
 
 SOLVING FOR HEAD 
                                                   Max.-Head-Change                         Max.-Flux-Residual
  Residual-Control   Outer-Iter.   Inner-Iter.     Column Row Layer    Maximum-Head-Change  Column Row Layer    Maximum-Flux-Residual          L2-NORM 
          0                 1           2             8    2     1       0.5723889565E-02       5    4    1         0.2820646910E+00      0.1815505237E+01
          0                 2           2             8    2     1       0.2573198647E-02       8    2    1         0.6681419176E-01      0.4330856483E+00
          0                 3           2             8    2     1       0.1156790832E-02       8    2    1         0.3003659620E-01      0.1549522435E+00
          0                 4           2             8    2     1       0.5200388786E-03       8    2    1         0.1350305861E-01      0.6641080092E-01
          0                 5           2             8    2     1       0.2337847807E-03       8    2    1         0.6070340235E-02      0.2953524522E-01
          0                 6           1             8    2     1       0.1050983993E-03       8    2    1         0.2728936050E-02      0.1321339009E-01
          0                 7           1             8    2     1       0.4724712722E-04       8    2    1         0.1226798185E-02      0.5916960492E-02
          0                 8           1             8    2     1       0.2123998217E-04       8    2    1         0.5515086504E-03      0.2650123575E-02
          0                 9           1             8    2     1       0.9548437653E-05       8    2    1         0.2479310762E-03      0.1187043137E-02

    ------------------------------------------------
       NWT REQUIRED            9 OUTER ITERATIONS 
       AND A TOTAL OF         14 INNER ITERATIONS.
    ------------------------------------------------

 NO OUTPUT CONTROL FOR STRESS PERIOD   14   TIME STEP    8
 
 SOLVING FOR HEAD 
                                                   Max.-Head-Change                         Max.-Flux-Residual
  Residual-Control   Outer-Iter.   Inner-Iter.     Column Row Layer    Maximum-Head-Change  Column Row Layer    Maximum-Flux-Residual          L2-NORM 
          0                 1           2             8    2     1       0.5722221965E-02       5    4    1         0.2810073934E+00      0.1814482557E+01
          0                 2           2             8    2     1       0.2572446348E-02       8    2    1         0.6679471364E-01      0.4329272634E+00
          0                 3           2             8    2     1       0.1156451458E-02       8    2    1         0.3002780914E-01      0.1548858424E+00
          0                 4           2             8    2     1       0.5198857856E-03       8    2    1         0.1349909465E-01      0.6638009651E-01
          0                 5           2             8    2     1       0.2337157218E-03       8    2    1         0.6068552087E-02      0.2952138551E-01
          0                 6           1             8    2     1       0.1050672483E-03       8    2    1         0.2728129430E-02      0.1320717463E-01
          0                 7           1             8    2     1       0.4723307573E-04       8    2    1         0.1226434330E-02      0.5914141004E-02
          0                 8           1             8    2     1       0.2123364398E-04       8    2    1         0.5513445243E-03      0.2648854453E-02
          0                 9           1             8    2     1       0.9545578884E-05       8    2    1         0.2478570448E-03      0.1186471965E-02

    ------------------------------------------------
       NWT REQUIRED            9 OUTER ITERATIONS 
       AND A TOTAL OF         14 INNER ITERATIONS.
    ------------------------------------------------

 NO OUTPUT CONTROL FOR STRESS PERIOD   14   TIME STEP    9
 
 SOLVING FOR HEAD 
                                                   Max.-Head-Change                         Max.-Flux-Residual
  Residual-Control   Outer-Iter.   Inner-Iter.     Column Row Layer    Maximum-Head-Change  Column Row Layer    Maximum-Flux-Residual          L2-NORM 
          0                 1           2             8    2     1       0.5720548730E-02       5    4    1         0.2800133676E+00      0.1812883409E+01
          0                 2           2             8    2     1       0.2571691536E-02       8    2    1         0.6677516987E-01      0.4326646737E+00
          0                 3           2             8    2     1       0.1156110964E-02       8    2    1         0.3001899280E-01      0.1548075485E+00
          0                 4           2             8    2     1       0.5197321933E-03       8    2    1         0.1349511764E-01      0.6634812948E-01
          0                 5           2             8    2     1       0.2336464399E-03       8    2    1         0.6066758113E-02      0.2950725014E-01
          0                 6           1             8    2     1       0.1050359975E-03       8    2    1         0.2727320214E-02      0.1320082867E-01
          0                 7           1             8    2     1       0.4721897997E-04       8    2    1         0.1226069325E-02      0.5911286218E-02
          0                 8           1             8    2     1       0.2122728641E-04       8    2    1         0.5511798904E-03      0.2647569964E-02
          0                 9           1             8    2     1       0.9542711236E-05       8    2    1         0.2477827875E-03      0.1185892438E-02

    ------------------------------------------------
       NWT REQUIRED            9 OUTER ITERATIONS 
       AND A TOTAL OF         14 INNER ITERATIONS.
    ------------------------------------------------

 NO OUTPUT CONTROL FOR STRESS PERIOD   14   TIME STEP   10
 
 SOLVING FOR HEAD 
                                                   Max.-Head-Change                         Max.-Flux-Residual
  Residual-Control   Outer-Iter.   Inner-Iter.     Column Row Layer    Maximum-Head-Change  Column Row Layer    Maximum-Flux-Residual          L2-NORM 
          0                 1           2             8    2     1       0.5718869865E-02       5    4    1         0.2790961034E+00      0.1811855276E+01
          0                 2           2             8    2     1       0.2570934171E-02       8    2    1         0.6675556027E-01      0.4324964633E+00
          0                 3           2             8    2     1       0.1155769312E-02       8    2    1         0.3001014661E-01      0.1547396466E+00
          0                 4           2             8    2     1       0.5195780760E-03       8    2    1         0.1349112708E-01      0.6631713114E-01
          0                 5           2             8    2     1       0.2335769203E-03       8    2    1         0.6064958007E-02      0.2949320456E-01
          0                 6           1             8    2     1       0.1050046393E-03       8    2    1         0.2726508220E-02      0.1319446429E-01
          0                 7           1             8    2     1       0.4720483544E-04       8    2    1         0.1225703057E-02      0.5908441091E-02
          0                 8           1             8    2     1       0.2122090608E-04       8    2    1         0.5510146805E-03      0.2646480209E-02
          0                 9           1             8    2     1       0.9539833708E-05       8    2    1         0.2477082751E-03      0.1185720322E-02

    ------------------------------------------------
       NWT REQUIRED            9 OUTER ITERATIONS 
       AND A TOTAL OF         14 INNER ITERATIONS.
    ------------------------------------------------

 NO OUTPUT CONTROL FOR STRESS PERIOD   14   TIME STEP   11
 
 SOLVING FOR HEAD 
                                                   Max.-Head-Change                         Max.-Flux-Residual
  Residual-Control   Outer-Iter.   Inner-Iter.     Column Row Layer    Maximum-Head-Change  Column Row Layer    Maximum-Flux-Residual          L2-NORM 
          0                 1           2             8    2     1       0.5717229439E-02       5    4    1         0.2782372788E+00      0.1811137430E+01
          0                 2           2             8    2     1       0.2570194110E-02       8    2    1         0.6673639947E-01      0.4323627356E+00
          0                 3           2             8    2     1       0.1155435450E-02       8    2    1         0.3000150245E-01      0.1546742701E+00
          0                 4           2             8    2     1       0.5194274653E-03       8    2    1         0.1348722748E-01      0.6628619986E-01
          0                 5           2             8    2     1       0.2335089790E-03       8    2    1         0.6063198842E-02      0.2947911460E-01
          0                 6           1             8    2     1       0.1049739914E-03       8    2    1         0.2725714658E-02      0.1318811075E-01
          0                 7           1             8    2     1       0.4719101081E-04       8    2    1         0.1225345090E-02      0.5905580453E-02
          0                 8           1             8    2     1       0.2121467043E-04       8    2    1         0.5508532095E-03      0.2645001459E-02
          0                 9           1             8    2     1       0.9537020959E-05       8    2    1         0.2476354375E-03      0.1184735831E-02

    ------------------------------------------------
       NWT REQUIRED            9 OUTER ITERATIONS 
       AND A TOTAL OF         14 INNER ITERATIONS.
    ------------------------------------------------

 NO OUTPUT CONTROL FOR STRESS PERIOD   14   TIME STEP   12
 
 SOLVING FOR HEAD 
                                                   Max.-Head-Change                         Max.-Flux-Residual
  Residual-Control   Outer-Iter.   Inner-Iter.     Column Row Layer    Maximum-Head-Change  Column Row Layer    Maximum-Flux-Residual          L2-NORM 
          0                 1           2             8    2     1       0.5715539352E-02       5    4    1         0.2774384353E+00      0.1810489603E+01
          0                 2           2             8    2     1       0.2569431740E-02       8    2    1         0.6671665906E-01      0.4322322441E+00
          0                 3           2             8    2     1       0.1155091567E-02       8    2    1         0.2999259794E-01      0.1546081884E+00
          0                 4           2             8    2     1       0.5192723533E-03       8    2    1         0.1348321093E-01      0.6625511307E-01
          0                 5           2             8    2     1       0.2334390158E-03       8    2    1         0.6061387141E-02      0.2946504052E-01
          0                 6           1             8    2     1       0.1049424354E-03       8    2    1         0.2724897497E-02      0.1318176102E-01
          0                 7           1             8    2     1       0.4717677811E-04       8    2    1         0.1224976522E-02      0.5902717515E-02
          0                 8           1             8    2     1       0.2120825158E-04       8    2    1         0.5506869779E-03      0.2643709868E-02
          0                 9           1             8    2     1       0.9534125924E-05       8    2    1         0.2475604622E-03      0.1184155307E-02

    ------------------------------------------------
       NWT REQUIRED            9 OUTER ITERATIONS 
       AND A TOTAL OF         14 INNER ITERATIONS.
    ------------------------------------------------

 NO OUTPUT CONTROL FOR STRESS PERIOD   14   TIME STEP   13
 
 SOLVING FOR HEAD 
                                                   Max.-Head-Change                         Max.-Flux-Residual
  Residual-Control   Outer-Iter.   Inner-Iter.     Column Row Layer    Maximum-Head-Change  Column Row Layer    Maximum-Flux-Residual          L2-NORM 
          0                 1           2             8    2     1       0.5713843807E-02       5    4    1         0.2766948766E+00      0.1809854122E+01
          0                 2           2             8    2     1       0.2568666938E-02       8    2    1         0.6669685504E-01      0.4320932560E+00
          0                 3           2             8    2     1       0.1154746599E-02       8    2    1         0.2998366506E-01      0.1545413883E+00
          0                 4           2             8    2     1       0.5191167582E-03       8    2    1         0.1347918173E-01      0.6622403558E-01
          0                 5           2             8    2     1       0.2333688377E-03       8    2    1         0.6059569807E-02      0.2945097583E-01
          0                 6           1             8    2     1       0.1049107833E-03       8    2    1         0.2724077819E-02      0.1317542352E-01
          0                 7           1             8    2     1       0.4716250277E-04       8    2    1         0.1224606830E-02      0.5899863981E-02
          0                 8           1             8    2     1       0.2120181297E-04       8    2    1         0.5505202413E-03      0.2642425125E-02
          0                 9           1             8    2     1       0.9531222260E-05       8    2    1         0.2474852688E-03      0.1183576935E-02

    ------------------------------------------------
       NWT REQUIRED            9 OUTER ITERATIONS 
       AND A TOTAL OF         14 INNER ITERATIONS.
    ------------------------------------------------

 NO OUTPUT CONTROL FOR STRESS PERIOD   14   TIME STEP   14
 
 SOLVING FOR HEAD 
                                                   Max.-Head-Change                         Max.-Flux-Residual
  Residual-Control   Outer-Iter.   Inner-Iter.     Column Row Layer    Maximum-Head-Change  Column Row Layer    Maximum-Flux-Residual          L2-NORM 
          0                 1           2             8    2     1       0.5712142772E-02       5    4    1         0.2759961647E+00      0.1809218584E+01
          0                 2           2             8    2     1       0.2567899624E-02       8    2    1         0.6667698673E-01      0.4319479661E+00
          0                 3           2             8    2     1       0.1154400484E-02       8    2    1         0.2997470278E-01      0.1544740659E+00
          0                 4           2             8    2     1       0.5189606381E-03       8    2    1         0.1347513909E-01      0.6619282657E-01
          0                 5           2             8    2     1       0.2332984194E-03       8    2    1         0.6057746332E-02      0.2943684399E-01
          0                 6           1             8    2     1       0.1048790220E-03       8    2    1         0.2723255345E-02      0.1316905503E-01
          0                 7           1             8    2     1       0.4714817729E-04       8    2    1         0.1224235863E-02      0.5896997790E-02
          0                 8           1             8    2     1       0.2119535235E-04       8    2    1         0.5503529301E-03      0.2641134749E-02
          0                 9           1             8    2     1       0.9528308591E-05       8    2    1         0.2474098067E-03      0.1182996252E-02

    ------------------------------------------------
       NWT REQUIRED            9 OUTER ITERATIONS 
       AND A TOTAL OF         14 INNER ITERATIONS.
    ------------------------------------------------

 NO OUTPUT CONTROL FOR STRESS PERIOD   14   TIME STEP   15
 
 SOLVING FOR HEAD 
                                                   Max.-Head-Change                         Max.-Flux-Residual
  Residual-Control   Outer-Iter.   Inner-Iter.     Column Row Layer    Maximum-Head-Change  Column Row Layer    Maximum-Flux-Residual          L2-NORM 
          0                 1           2             8    2     1       0.5710392320E-02       5    4    1         0.2753447199E+00      0.1808610339E+01
          0                 2           2             8    2     1       0.2567110220E-02       8    2    1         0.6665654218E-01      0.4318099635E+00
          0                 3           2             8    2     1       0.1154044492E-02       8    2    1         0.2996548290E-01      0.1544082918E+00
          0                 4           2             8    2     1       0.5188001033E-03       8    2    1         0.1347098130E-01      0.6616186989E-01
          0                 5           2             8    2     1       0.2332260275E-03       8    2    1         0.6055871375E-02      0.2942279284E-01
          0                 6           1             8    2     1       0.1048463782E-03       8    2    1         0.2722409853E-02      0.1316272179E-01
          0                 7           1             8    2     1       0.4713345775E-04       8    2    1         0.1223854609E-02      0.5894145504E-02
          0                 8           1             8    2     1       0.2118871516E-04       8    2    1         0.5501810125E-03      0.2639851040E-02
          0                 9           1             8    2     1       0.9525315763E-05       8    2    1         0.2473322845E-03      0.1182418303E-02

    ------------------------------------------------
       NWT REQUIRED            9 OUTER ITERATIONS 
       AND A TOTAL OF         14 INNER ITERATIONS.
    ------------------------------------------------

 NO OUTPUT CONTROL FOR STRESS PERIOD   14   TIME STEP   16
 
 SOLVING FOR HEAD 
                                                   Max.-Head-Change                         Max.-Flux-Residual
  Residual-Control   Outer-Iter.   Inner-Iter.     Column Row Layer    Maximum-Head-Change  Column Row Layer    Maximum-Flux-Residual          L2-NORM 
          0                 1           2             8    2     1       0.5708680810E-02       5    4    1         0.2747371770E+00      0.1808047694E+01
          0                 2           2             8    2     1       0.2566338260E-02       8    2    1         0.6663655189E-01      0.4316711384E+00
          0                 3           2             8    2     1       0.1153696316E-02       8    2    1         0.2995646653E-01      0.1543408150E+00
          0                 4           2             8    2     1       0.5186430696E-03       8    2    1         0.1346691467E-01      0.6613046512E-01
          0                 5           2             8    2     1       0.2331552045E-03       8    2    1         0.6054037264E-02      0.2940858449E-01
          0                 6           1             8    2     1       0.1048144372E-03       8    2    1         0.2721582659E-02      0.1315632113E-01
          0                 7           1             8    2     1       0.4711905286E-04       8    2    1         0.1223481547E-02      0.5891265283E-02
          0                 8           1             8    2     1       0.2118221865E-04       8    2    1         0.5500127670E-03      0.2638556562E-02
          0                 9           1             8    2     1       0.9522386087E-05       8    2    1         0.2472564134E-03      0.1181839141E-02

    ------------------------------------------------
       NWT REQUIRED            9 OUTER ITERATIONS 
       AND A TOTAL OF         14 INNER ITERATIONS.
    ------------------------------------------------

 NO OUTPUT CONTROL FOR STRESS PERIOD   14   TIME STEP   17
 
 SOLVING FOR HEAD 
                                                   Max.-Head-Change                         Max.-Flux-Residual
  Residual-Control   Outer-Iter.   Inner-Iter.     Column Row Layer    Maximum-Head-Change  Column Row Layer    Maximum-Flux-Residual          L2-NORM 
          0                 1           2             8    2     1       0.5706964060E-02       5    4    1         0.2741699790E+00      0.1807519833E+01
          0                 2           2             8    2     1       0.2565563986E-02       8    2    1         0.6661650064E-01      0.4315391532E+00
          0                 3           2             8    2     1       0.1153347118E-02       8    2    1         0.2994742322E-01      0.1542744986E+00
          0                 4           2             8    2     1       0.5184855846E-03       8    2    1         0.1346283615E-01      0.6609938449E-01
          0                 5           2             8    2     1       0.2330841817E-03       8    2    1         0.6052197896E-02      0.2939449811E-01
          0                 6           1             8    2     1       0.1047824084E-03       8    2    1         0.2720753148E-02      0.1314997372E-01
          0                 7           1             8    2     1       0.4710460920E-04       8    2    1         0.1223107465E-02      0.5888406248E-02
          0                 8           1             8    2     1       0.2117570538E-04       8    2    1         0.5498440718E-03      0.2637268003E-02
          0                 9           1             8    2     1       0.9519448908E-05       8    2    1         0.2471803405E-03      0.1181255936E-02

    ------------------------------------------------
       NWT REQUIRED            9 OUTER ITERATIONS 
       AND A TOTAL OF         14 INNER ITERATIONS.
    ------------------------------------------------

 NO OUTPUT CONTROL FOR STRESS PERIOD   14   TIME STEP   18
 
 SOLVING FOR HEAD 
                                                   Max.-Head-Change                         Max.-Flux-Residual
  Residual-Control   Outer-Iter.   Inner-Iter.     Column Row Layer    Maximum-Head-Change  Column Row Layer    Maximum-Flux-Residual          L2-NORM 
          0                 1           2             8    2     1       0.5705242152E-02       5    4    1         0.2736340168E+00      0.1806278130E+01
          0                 2           2             8    2     1       0.2564787394E-02       8    2    1         0.6659638918E-01      0.4312273887E+00
          0                 3           2             8    2     1       0.1152996878E-02       8    2    1         0.2993835285E-01      0.1541873253E+00
          0                 4           2             8    2     1       0.5183276315E-03       8    2    1         0.1345874546E-01      0.6606632907E-01
          0                 5           2             8    2     1       0.2330129489E-03       8    2    1         0.6050353065E-02      0.2938014881E-01
          0                 6           1             8    2     1       0.1047502845E-03       8    2    1         0.2719921177E-02      0.1314355639E-01
          0                 7           1             8    2     1       0.4709012289E-04       8    2    1         0.1222732281E-02      0.5885522444E-02
          0                 8           1             8    2     1       0.2116917286E-04       8    2    1         0.5496748854E-03      0.2635969907E-02
          0                 9           1             8    2     1       0.9516503475E-05       8    2    1         0.2471040494E-03      0.1180671787E-02

    ------------------------------------------------
       NWT REQUIRED            9 OUTER ITERATIONS 
       AND A TOTAL OF         14 INNER ITERATIONS.
    ------------------------------------------------

 NO OUTPUT CONTROL FOR STRESS PERIOD   14   TIME STEP   19
 
 SOLVING FOR HEAD 
                                                   Max.-Head-Change                         Max.-Flux-Residual
  Residual-Control   Outer-Iter.   Inner-Iter.     Column Row Layer    Maximum-Head-Change  Column Row Layer    Maximum-Flux-Residual          L2-NORM 
          0                 1           2             8    2     1       0.5703471054E-02       5    4    1         0.2731393296E+00      0.1804629925E+01
          0                 2           2             8    2     1       0.2563988725E-02       8    2    1         0.6657570371E-01      0.4309597218E+00
          0                 3           2             8    2     1       0.1152636731E-02       8    2    1         0.2992902488E-01      0.1541093858E+00
          0                 4           2             8    2     1       0.5181652324E-03       8    2    1         0.1345453918E-01      0.6603388882E-01
          0                 5           2             8    2     1       0.2329397209E-03       8    2    1         0.6048456357E-02      0.2936570175E-01
          0                 6           1             8    2     1       0.1047172658E-03       8    2    1         0.2719065927E-02      0.1313706483E-01
          0                 7           1             8    2     1       0.4707523515E-04       8    2    1         0.1222346646E-02      0.5882602427E-02
          0                 8           1             8    2     1       0.2116246000E-04       8    2    1         0.5495010015E-03      0.2634656604E-02
          0                 9           1             8    2     1       0.9513476631E-05       8    2    1         0.2470256477E-03      0.1180081473E-02

    ------------------------------------------------
       NWT REQUIRED            9 OUTER ITERATIONS 
       AND A TOTAL OF         14 INNER ITERATIONS.
    ------------------------------------------------

 NO OUTPUT CONTROL FOR STRESS PERIOD   14   TIME STEP   20
 
 SOLVING FOR HEAD 
                                                   Max.-Head-Change                         Max.-Flux-Residual
  Residual-Control   Outer-Iter.   Inner-Iter.     Column Row Layer    Maximum-Head-Change  Column Row Layer    Maximum-Flux-Residual          L2-NORM 
          0                 1           2             8    2     1       0.5701739101E-02       5    4    1         0.2726702908E+00      0.1804086026E+01
          0                 2           2             8    2     1       0.2563207638E-02       8    2    1         0.6655547510E-01      0.4308229135E+00
          0                 3           2             8    2     1       0.1152284479E-02       8    2    1         0.2991990208E-01      0.1540418662E+00
          0                 4           2             8    2     1       0.5180063786E-03       8    2    1         0.1345042503E-01      0.6600238675E-01
          0                 5           2             8    2     1       0.2328680852E-03       8    2    1         0.6046601027E-02      0.2935143524E-01
          0                 6           1             8    2     1       0.1046849621E-03       8    2    1         0.2718229260E-02      0.1313063879E-01
          0                 7           1             8    2     1       0.4706066806E-04       8    2    1         0.1221969356E-02      0.5879709387E-02
          0                 8           1             8    2     1       0.2115589171E-04       8    2    1         0.5493308710E-03      0.2633357058E-02
          0                 9           1             8    2     1       0.9510514816E-05       8    2    1         0.2469489302E-03      0.1179500182E-02

    ------------------------------------------------
       NWT REQUIRED            9 OUTER ITERATIONS 
       AND A TOTAL OF         14 INNER ITERATIONS.
    ------------------------------------------------

 NO OUTPUT CONTROL FOR STRESS PERIOD   14   TIME STEP   21
 
 SOLVING FOR HEAD 
                                                   Max.-Head-Change                         Max.-Flux-Residual
  Residual-Control   Outer-Iter.   Inner-Iter.     Column Row Layer    Maximum-Head-Change  Column Row Layer    Maximum-Flux-Residual          L2-NORM 
          0                 1           2             8    2     1       0.5700002091E-02       6    4    1         0.2723521799E+00      0.1803632430E+01
          0                 2           2             8    2     1       0.2562424277E-02       8    2    1         0.6653518744E-01      0.4306858026E+00
          0                 3           2             8    2     1       0.1151931206E-02       8    2    1         0.2991075275E-01      0.1539735092E+00
          0                 4           2             8    2     1       0.5178470668E-03       8    2    1         0.1344629897E-01      0.6597069578E-01
          0                 5           2             8    2     1       0.2327962437E-03       8    2    1         0.6044740347E-02      0.2933711530E-01
          0                 6           1             8    2     1       0.1046525660E-03       8    2    1         0.2717390191E-02      0.1312419173E-01
          0                 7           1             8    2     1       0.4704605983E-04       8    2    1         0.1221590990E-02      0.5876809048E-02
          0                 8           1             8    2     1       0.2114930429E-04       8    2    1         0.5491602547E-03      0.2632050428E-02
          0                 9           1             8    2     1       0.9507544748E-05       8    2    1         0.2468719996E-03      0.1178908655E-02

    ------------------------------------------------
       NWT REQUIRED            9 OUTER ITERATIONS 
       AND A TOTAL OF         14 INNER ITERATIONS.
    ------------------------------------------------

 NO OUTPUT CONTROL FOR STRESS PERIOD   14   TIME STEP   22
 
 SOLVING FOR HEAD 
                                                   Max.-Head-Change                         Max.-Flux-Residual
  Residual-Control   Outer-Iter.   Inner-Iter.     Column Row Layer    Maximum-Head-Change  Column Row Layer    Maximum-Flux-Residual          L2-NORM 
          0                 1           2             8    2     1       0.5698216047E-02       6    4    1         0.2724657447E+00      0.1803280758E+01
          0                 2           2             8    2     1       0.2561618954E-02       8    2    1         0.6651432782E-01      0.4305643695E+00
          0                 3           2             8    2     1       0.1151568095E-02       8    2    1         0.2990134723E-01      0.1539068222E+00
          0                 4           2             8    2     1       0.5176833480E-03       8    2    1         0.1344205814E-01      0.6593919530E-01
          0                 5           2             8    2     1       0.2327224278E-03       8    2    1         0.6042828255E-02      0.2932282743E-01
          0                 6           1             8    2     1       0.1046192855E-03       8    2    1         0.2716528094E-02      0.1311775510E-01
          0                 7           1             8    2     1       0.4703105529E-04       8    2    1         0.1221202306E-02      0.5873912572E-02
          0                 8           1             8    2     1       0.2114253966E-04       8    2    1         0.5489850187E-03      0.2630747938E-02
          0                 9           1             8    2     1       0.9504495019E-05       8    2    1         0.2467929962E-03      0.1178324757E-02

    ------------------------------------------------
       NWT REQUIRED            9 OUTER ITERATIONS 
       AND A TOTAL OF         14 INNER ITERATIONS.
    ------------------------------------------------

 NO OUTPUT CONTROL FOR STRESS PERIOD   14   TIME STEP   23
 
 SOLVING FOR HEAD 
                                                   Max.-Head-Change                         Max.-Flux-Residual
  Residual-Control   Outer-Iter.   Inner-Iter.     Column Row Layer    Maximum-Head-Change  Column Row Layer    Maximum-Flux-Residual          L2-NORM 
          0                 1           2             8    2     1       0.5696469345E-02       6    4    1         0.2725644037E+00      0.1802970882E+01
          0                 2           2             8    2     1       0.2560831255E-02       8    2    1         0.6649392713E-01      0.4304377453E+00
          0                 3           2             8    2     1       0.1151212880E-02       8    2    1         0.2989214731E-01      0.1538404740E+00
          0                 4           2             8    2     1       0.5175231668E-03       8    2    1         0.1343790943E-01      0.6590777683E-01
          0                 5           2             8    2     1       0.2326501973E-03       8    2    1         0.6040957438E-02      0.2930857435E-01
          0                 6           1             8    2     1       0.1045867151E-03       8    2    1         0.2715684484E-02      0.1311133428E-01
          0                 7           1             8    2     1       0.4701636877E-04       8    2    1         0.1220821906E-02      0.5871024028E-02
          0                 8           1             8    2     1       0.2113591772E-04       8    2    1         0.5488134946E-03      0.2629447198E-02
          0                 9           1             8    2     1       0.9501509193E-05       8    2    1         0.2467156565E-03      0.1177737571E-02

    ------------------------------------------------
       NWT REQUIRED            9 OUTER ITERATIONS 
       AND A TOTAL OF         14 INNER ITERATIONS.
    ------------------------------------------------

 NO OUTPUT CONTROL FOR STRESS PERIOD   14   TIME STEP   24
 
 SOLVING FOR HEAD 
                                                   Max.-Head-Change                         Max.-Flux-Residual
  Residual-Control   Outer-Iter.   Inner-Iter.     Column Row Layer    Maximum-Head-Change  Column Row Layer    Maximum-Flux-Residual          L2-NORM 
          0                 1           2             8    2     1       0.5694673684E-02       6    4    1         0.2726494980E+00      0.1802502186E+01
          0                 2           2             8    2     1       0.2560021631E-02       8    2    1         0.6647295535E-01      0.4302945615E+00
          0                 3           2             8    2     1       0.1150847847E-02       8    2    1         0.2988269163E-01      0.1537725035E+00
          0                 4           2             8    2     1       0.5173585886E-03       8    2    1         0.1343364619E-01      0.6587648651E-01
          0                 5           2             8    2     1       0.2325759973E-03       8    2    1         0.6039035328E-02      0.2929443559E-01
          0                 6           1             8    2     1       0.1045532632E-03       8    2    1         0.2714817911E-02      0.1310500042E-01
          0                 7           1             8    2     1       0.4700128795E-04       8    2    1         0.1220431224E-02      0.5868161385E-02
          0                 8           1             8    2     1       0.2112911882E-04       8    2    1         0.5486373606E-03      0.2628321642E-02
          0                 9           1             8    2     1       0.9498444082E-05       8    2    1         0.2466362498E-03      0.1177156684E-02

    ------------------------------------------------
       NWT REQUIRED            9 OUTER ITERATIONS 
       AND A TOTAL OF         14 INNER ITERATIONS.
    ------------------------------------------------

 NO OUTPUT CONTROL FOR STRESS PERIOD   14   TIME STEP   25
 
 SOLVING FOR HEAD 
                                                   Max.-Head-Change                         Max.-Flux-Residual
  Residual-Control   Outer-Iter.   Inner-Iter.     Column Row Layer    Maximum-Head-Change  Column Row Layer    Maximum-Flux-Residual          L2-NORM 
          0                 1           2             8    2     1       0.5692917514E-02       6    4    1         0.2727220688E+00      0.1802127992E+01
          0                 2           2             8    2     1       0.2559229720E-02       8    2    1         0.6645244435E-01      0.4301713199E+00
          0                 3           2             8    2     1       0.1150490757E-02       8    2    1         0.2987344262E-01      0.1537059029E+00
          0                 4           2             8    2     1       0.5171975732E-03       8    2    1         0.1342947564E-01      0.6584506434E-01
          0                 5           2             8    2     1       0.2325033955E-03       8    2    1         0.6037154791E-02      0.2928019507E-01
          0                 6           1             8    2     1       0.1045205276E-03       8    2    1         0.2713969982E-02      0.1309855425E-01
          0                 7           1             8    2     1       0.4698652815E-04       8    2    1         0.1220048904E-02      0.5865273351E-02
          0                 8           1             8    2     1       0.2112246424E-04       8    2    1         0.5484649835E-03      0.2626861930E-02
          0                 9           1             8    2     1       0.9495444000E-05       8    2    1         0.2465585315E-03      0.1176577399E-02

    ------------------------------------------------
       NWT REQUIRED            9 OUTER ITERATIONS 
       AND A TOTAL OF         14 INNER ITERATIONS.
    ------------------------------------------------

 NO OUTPUT CONTROL FOR STRESS PERIOD   14   TIME STEP   26
 
 SOLVING FOR HEAD 
                                                   Max.-Head-Change                         Max.-Flux-Residual
  Residual-Control   Outer-Iter.   Inner-Iter.     Column Row Layer    Maximum-Head-Change  Column Row Layer    Maximum-Flux-Residual          L2-NORM 
          0                 1           2             8    2     1       0.5691112501E-02       6    4    1         0.2727830749E+00      0.1801855031E+01
          0                 2           2             8    2     1       0.2558415911E-02       8    2    1         0.6643136350E-01      0.4300565116E+00
          0                 3           2             8    2     1       0.1150123851E-02       8    2    1         0.2986393814E-01      0.1536404416E+00
          0                 4           2             8    2     1       0.5170321572E-03       8    2    1         0.1342519055E-01      0.6581400012E-01
          0                 5           2             8    2     1       0.2324288206E-03       8    2    1         0.6035222903E-02      0.2926609945E-01
          0                 6           1             8    2     1       0.1044869076E-03       8    2    1         0.2713099028E-02      0.1309220391E-01
          0                 7           1             8    2     1       0.4697137179E-04       8    2    1         0.1219656259E-02      0.5862415004E-02
          0                 8           1             8    2     1       0.2111563184E-04       8    2    1         0.5482879738E-03      0.2625574655E-02
          0                 9           1             8    2     1       0.9492363633E-05       8    2    1         0.2464787318E-03      0.1175995521E-02

    ------------------------------------------------
       NWT REQUIRED            9 OUTER ITERATIONS 
       AND A TOTAL OF         14 INNER ITERATIONS.
    ------------------------------------------------

 NO OUTPUT CONTROL FOR STRESS PERIOD   14   TIME STEP   27
 
 SOLVING FOR HEAD 
                                                   Max.-Head-Change                         Max.-Flux-Residual
  Residual-Control   Outer-Iter.   Inner-Iter.     Column Row Layer    Maximum-Head-Change  Column Row Layer    Maximum-Flux-Residual          L2-NORM 
          0                 1           2             8    2     1       0.5689302946E-02       6    4    1         0.2728392095E+00      0.1801431366E+01
          0                 2           2             8    2     1       0.2557600039E-02       8    2    1         0.6641022952E-01      0.4298581789E+00
          0                 3           2             8    2     1       0.1149756008E-02       8    2    1         0.2985440953E-01      0.1535626716E+00
          0                 4           2             8    2     1       0.5168663155E-03       8    2    1         0.1342089452E-01      0.6578168098E-01
          0                 5           2             8    2     1       0.2323540529E-03       8    2    1         0.6033286053E-02      0.2925184245E-01
          0                 6           1             8    2     1       0.1044532002E-03       8    2    1         0.2712225826E-02      0.1308581947E-01
          0                 7           1             8    2     1       0.4695617605E-04       8    2    1         0.1219262597E-02      0.5859546023E-02
          0                 8           1             8    2     1       0.2110878104E-04       8    2    1         0.5481105038E-03      0.2624284101E-02
          0                 9           1             8    2     1       0.9489275637E-05       8    2    1         0.2463987315E-03      0.1175417849E-02

    ------------------------------------------------
       NWT REQUIRED            9 OUTER ITERATIONS 
       AND A TOTAL OF         14 INNER ITERATIONS.
    ------------------------------------------------

 NO OUTPUT CONTROL FOR STRESS PERIOD   14   TIME STEP   28
 
 SOLVING FOR HEAD 
                                                   Max.-Head-Change                         Max.-Flux-Residual
  Residual-Control   Outer-Iter.   Inner-Iter.     Column Row Layer    Maximum-Head-Change  Column Row Layer    Maximum-Flux-Residual          L2-NORM 
          0                 1           2             8    2     1       0.5687488935E-02       6    4    1         0.2728794915E+00      0.1799780587E+01
          0                 2           2             8    2     1       0.2556782227E-02       8    2    1         0.6638904384E-01      0.4295691439E+00
          0                 3           2             8    2     1       0.1149387322E-02       8    2    1         0.2984485841E-01      0.1534824865E+00
          0                 4           2             8    2     1       0.5167001071E-03       8    2    1         0.1341658869E-01      0.6574945713E-01
          0                 5           2             8    2     1       0.2322791256E-03       8    2    1         0.6031344938E-02      0.2923765243E-01
          0                 6           1             8    2     1       0.1044194236E-03       8    2    1         0.2711350769E-02      0.1307947845E-01
          0                 7           1             8    2     1       0.4694094991E-04       8    2    1         0.1218868127E-02      0.5856676068E-02
          0                 8           1             8    2     1       0.2110191762E-04       8    2    1         0.5479326828E-03      0.2623121986E-02
          0                 9           1             8    2     1       0.9486181638E-05       8    2    1         0.2463185733E-03      0.1175219012E-02

    ------------------------------------------------
       NWT REQUIRED            9 OUTER ITERATIONS 
       AND A TOTAL OF         14 INNER ITERATIONS.
    ------------------------------------------------

 NO OUTPUT CONTROL FOR STRESS PERIOD   14   TIME STEP   29
 
 SOLVING FOR HEAD 
                                                   Max.-Head-Change                         Max.-Flux-Residual
  Residual-Control   Outer-Iter.   Inner-Iter.     Column Row Layer    Maximum-Head-Change  Column Row Layer    Maximum-Flux-Residual          L2-NORM 
          0                 1           2             8    2     1       0.5685670547E-02       6    4    1         0.2729107484E+00      0.1799384033E+01
          0                 2           2             8    2     1       0.2555962427E-02       8    2    1         0.6636780695E-01      0.4293883313E+00
          0                 3           2             8    2     1       0.1149017731E-02       8    2    1         0.2983528403E-01      0.1534081242E+00
          0                 4           2             8    2     1       0.5165334884E-03       8    2    1         0.1341227229E-01      0.6571730073E-01
          0                 5           2             8    2     1       0.2322040120E-03       8    2    1         0.6029399026E-02      0.2922333483E-01
          0                 6           1             8    2     1       0.1043855622E-03       8    2    1         0.2710473536E-02      0.1307304437E-01
          0                 7           1             8    2     1       0.4692568551E-04       8    2    1         0.1218472675E-02      0.5853784769E-02
          0                 8           1             8    2     1       0.2109503682E-04       8    2    1         0.5477544202E-03      0.2621692979E-02
          0                 9           1             8    2     1       0.9483080136E-05       8    2    1         0.2462382175E-03      0.1174249560E-02

    ------------------------------------------------
       NWT REQUIRED            9 OUTER ITERATIONS 
       AND A TOTAL OF         14 INNER ITERATIONS.
    ------------------------------------------------

 NO OUTPUT CONTROL FOR STRESS PERIOD   14   TIME STEP   30



 STREAM LISTING     PERIOD     14   STEP       30

 LAYER ROW COL. STREAM  RCH.  FLOW INTO     FLOW TO   FLOW OUT OF   OVRLND.     DIRECT     STREAM       STREAM     STREAM     STREAM   STREAMBED  STREAMBED
                SEG.NO.  NO.  STRM. RCH.    AQUIFER    STRM. RCH.    RUNOFF     PRECIP       ET          HEAD       DEPTH      WIDTH   CONDCTNC.   GRADIENT

   1    1    1     1     1    1.0500E+01  1.5271E-10   1.0500E+01  0.000E+00  0.000E+00  0.000E+00  1.09396E+03  9.109E-01  8.677E+00  3.905E-11  1.304E+00
   1    2    2     1     2    1.0500E+01  2.3701E-10   1.0500E+01  0.000E+00  0.000E+00  0.000E+00  1.08897E+03  9.098E-01  8.660E+00  6.062E-11  1.303E+00
   1    3    3     1     3    1.0500E+01  2.0334E-10   1.0500E+01  0.000E+00  0.000E+00  0.000E+00  1.08333E+03  9.102E-01  8.667E+00  5.200E-11  1.303E+00
   1    3    4     1     4    1.0500E+01  1.8816E-10   1.0500E+01  0.000E+00  0.000E+00  0.000E+00  1.07832E+03  9.104E-01  8.670E+00  4.812E-11  1.303E+00
   1    4    5     2     1    8.5000E+00  2.8281E-01   8.2172E+00  0.000E+00  0.000E+00  0.000E+00  1.07256E+03  6.258E-01  1.200E+01  7.800E-02  1.209E+00
   1    5    6     2     2    8.2172E+00  2.1687E-01   8.0003E+00  0.000E+00  0.000E+00  0.000E+00  1.06712E+03  6.145E-01  1.200E+01  6.000E-02  1.205E+00
   1    6    6     2     3    8.0003E+00  2.1628E-01   7.7840E+00  0.000E+00  0.000E+00  0.000E+00  1.06240E+03  6.046E-01  1.200E+01  6.000E-02  1.202E+00
   1    7    6     2     4    7.7840E+00  2.1568E-01   7.5684E+00  0.000E+00  0.000E+00  0.000E+00  1.05767E+03  5.946E-01  1.200E+01  6.000E-02  1.198E+00
   1    8    6     2     5    7.5684E+00  2.1507E-01   7.3533E+00  0.000E+00  0.000E+00  0.000E+00  1.05294E+03  5.845E-01  1.200E+01  6.000E-02  1.195E+00
   1    3    5     3     1    2.0000E+00  2.8252E-01   1.7175E+00  0.000E+00  0.000E+00  0.000E+00  1.07555E+03  1.909E+00  9.636E+00  7.227E-02  1.955E+00
   1    3    6     3     2    1.7175E+00  2.4905E-01   1.4684E+00  0.000E+00  0.000E+00  0.000E+00  1.07264E+03  1.727E+00  8.909E+00  6.682E-02  1.864E+00
   1    3    7     3     3    1.4684E+00  1.9718E-01   1.2712E+00  0.000E+00  0.000E+00  0.000E+00  1.06987E+03  1.555E+00  8.218E+00  5.547E-02  1.777E+00
   1    4    8     3     4    1.2712E+00  2.2567E-01   1.0456E+00  0.000E+00  0.000E+00  0.000E+00  1.06682E+03  1.364E+00  7.455E+00  6.709E-02  1.682E+00
   1    5    8     3     5    1.0456E+00  1.5790E-01   8.8768E-01  0.000E+00  0.000E+00  0.000E+00  1.06362E+03  1.164E+00  6.655E+00  4.991E-02  1.582E+00
   1    6    8     3     6    8.8768E-01  5.5980E-02   8.3170E-01  0.000E+00  0.000E+00  0.000E+00  1.06158E+03  1.036E+00  6.145E+00  1.844E-02  1.518E+00
   1    5   10     4     1    1.0000E+01  9.0919E-02   9.9091E+00  0.000E+00  0.000E+00  0.000E+00  1.07836E+03  6.368E-01  1.000E+01  2.500E-02  1.212E+00
   1    5    9     4     2    9.9091E+00  1.8158E-01   9.7275E+00  0.000E+00  0.000E+00  0.000E+00  1.07154E+03  6.315E-01  1.000E+01  5.000E-02  1.211E+00
   1    6    8     4     3    9.7275E+00  1.2689E-01   9.6006E+00  0.000E+00  0.000E+00  0.000E+00  1.06381E+03  6.256E-01  1.000E+01  3.500E-02  1.209E+00
   1    6    8     5     1    1.0432E+01  2.2686E-09   1.0432E+01  0.000E+00  0.000E+00  0.000E+00  1.05868E+03  6.790E-01  1.542E+01  6.166E-10  1.226E+00
   1    7    7     5     2    1.0432E+01  2.8306E-09   1.0432E+01  0.000E+00  0.000E+00  0.000E+00  1.05418E+03  6.784E-01  1.539E+01  7.695E-10  1.226E+00
   1    8    7     5     3    1.0432E+01  1.9868E-09   1.0432E+01  0.000E+00  0.000E+00  0.000E+00  1.04993E+03  6.794E-01  1.543E+01  5.400E-10  1.226E+00
   1    8    6     5     4    1.0432E+01  1.4217E-09   1.0432E+01  0.000E+00  0.000E+00  0.000E+00  1.04693E+03  6.800E-01  1.545E+01  3.863E-10  1.227E+00
   1    9    6     6     1    1.7786E+01  2.3948E-01   1.7546E+01  0.000E+00  0.000E+00  0.000E+00  1.04372E+03  9.914E-01  1.200E+01  6.000E-02  1.330E+00
   1   10    7     6     2    1.7546E+01  2.3900E-01   1.7307E+01  0.000E+00  0.000E+00  0.000E+00  1.03917E+03  9.833E-01  1.200E+01  6.000E-02  1.328E+00
   1   11    7     6     3    1.7307E+01  2.3851E-01   1.7069E+01  0.000E+00  0.000E+00  0.000E+00  1.03461E+03  9.752E-01  1.200E+01  6.000E-02  1.325E+00
   1   12    7     6     4    1.7069E+01  2.3803E-01   1.6831E+01  0.000E+00  0.000E+00  0.000E+00  1.03006E+03  9.671E-01  1.200E+01  6.000E-02  1.322E+00
   1   13    7     6     5    1.6831E+01  9.5073E-02   1.6736E+01  0.000E+00  0.000E+00  0.000E+00  1.02687E+03  9.614E-01  1.200E+01  2.400E-02  1.320E+00
   1   14    9     7     1    1.5000E+02  2.9539E-08   1.5000E+02  0.000E+00  0.000E+00  0.000E+00  1.03986E+03  2.283E+00  5.528E+01  5.591E-09  1.761E+00
   1   13    8     7     2    1.5000E+02  3.2486E-14   1.5000E+02  0.000E+00  0.000E+00  0.000E+00  1.03478E+03  2.283E+00  5.527E+01  6.150E-15  1.761E+00
   1   13    7     7     3    1.5000E+02  2.9539E-08   1.5000E+02  0.000E+00  0.000E+00  0.000E+00  1.02970E+03  2.283E+00  5.528E+01  5.591E-09  1.761E+00
   1   13    6     8     1    1.6674E+02  2.5684E-31   1.6674E+02  0.000E+00  0.000E+00  0.000E+00  1.02481E+03  2.931E+00  4.250E+01  4.331E-32  1.977E+00
   1   13    5     8     2    1.6674E+02  2.5684E-31   1.6674E+02  0.000E+00  0.000E+00  0.000E+00  1.01856E+03  2.931E+00  4.250E+01  4.331E-32  1.977E+00
   1   13    4     8     3    1.6674E+02  1.8575E-17   1.6674E+02  0.000E+00  0.000E+00  0.000E+00  1.01230E+03  2.925E+00  4.241E+01  4.322E-18  1.433E+00
   1   13    3     8     4    1.6674E+02  2.8823E-06   1.6674E+02  0.000E+00  0.000E+00  0.000E+00  1.00605E+03  2.930E+00  4.248E+01  4.329E-06  2.219E-01
   1   13    2     8     5    1.6674E+02 -1.5953E+00   1.6833E+02  0.000E+00  0.000E+00  0.000E+00  9.99811E+02  2.936E+00  4.257E+01  4.338E+00 -1.226E-01
   1   13    1     8     6    1.6833E+02 -1.8313E+00   1.7016E+02  0.000E+00  0.000E+00  0.000E+00  9.94822E+02  2.947E+00  4.274E+01  2.613E+00 -2.336E-01
   1    6    8     9     1    0.0000E+00  0.0000E+00   0.0000E+00  0.000E+00  0.000E+00  0.000E+00  1.07850E+03  0.000E+00  4.000E+00  0.000E+00  1.000E+00





UNSATURATED ZONE PACKAGE VOLUMETRIC BUDGET FOR  TIME STEP    30 STRESS PERIOD   14
  ------------------------------------------------------------------------------



     CUMULATIVE VOLUMES      L**3       RATES FOR THIS TIME STEP      L**3/T
     ------------------                 ------------------------

           IN:                                      IN:
           ---                                      ---
        INFILTRATION =    61227783.1201          INFILTRATION =           0.8475

          OUT:                                     OUT:
          ----                                     ----
              UZF ET =   563953297.1008                UZF ET =           0.0128
        UZF RECHARGE =   926744228.7470          UZF RECHARGE =          25.6567

            IN - OUT = -1429469742.7276              IN - OUT =         -24.8221

          STORAGE:                                 STORAGE:
          --------                                 --------
      STORAGE CHANGE = -1429461955.1337        STORAGE CHANGE =         -24.8221

 PERCENT DISCREPANCY IS DIFFERENCE BETWEEN IN-OUT MINUS CHANGE IN STORAGE
 DIVIDED BY THE AVERAGE OF IN AND OUT TIMES 100

 PERCENT DISCREPANCY =          -0.00     PERCENT DISCREPANCY =           0.00






1
  VOLUMETRIC BUDGET FOR ENTIRE MODEL AT END OF TIME STEP   30, STRESS PERIOD  14
  ------------------------------------------------------------------------------

     CUMULATIVE VOLUMES      L**3       RATES FOR THIS TIME STEP      L**3/T
     ------------------                 ------------------------

           IN:                                      IN:
           ---                                      ---
             STORAGE =    16149497.0000               STORAGE =           0.0000
       CONSTANT HEAD =           0.0000         CONSTANT HEAD =           0.0000
               WELLS =           0.0000                 WELLS =           0.0000
     HEAD DEP BOUNDS =    38338888.0000       HEAD DEP BOUNDS =           1.0090
      STREAM LEAKAGE =   142338784.0000        STREAM LEAKAGE =           3.7645
        UZF RECHARGE =   926744576.0000          UZF RECHARGE =          25.6567
               GW ET =           0.0000                 GW ET =           0.0000
     SURFACE LEAKAGE =           0.0000       SURFACE LEAKAGE =           0.0000

            TOTAL IN =  1123571712.0000              TOTAL IN =          30.4303

          OUT:                                     OUT:
          ----                                     ----
             STORAGE =   985759488.0000               STORAGE =          26.7064
       CONSTANT HEAD =           0.0000         CONSTANT HEAD =           0.0000
               WELLS =     1059111.1250                 WELLS =           0.0000
     HEAD DEP BOUNDS =    10437748.0000       HEAD DEP BOUNDS =           0.2859
      STREAM LEAKAGE =    88747640.0000        STREAM LEAKAGE =           3.4267
        UZF RECHARGE =           0.0000          UZF RECHARGE =           0.0000
               GW ET =    37468264.0000                 GW ET =       7.3913E-03
     SURFACE LEAKAGE =           0.0000       SURFACE LEAKAGE =           0.0000

           TOTAL OUT =  1123472256.0000             TOTAL OUT =          30.4264

            IN - OUT =       99456.0000              IN - OUT =       3.9062E-03

 PERCENT DISCREPANCY =           0.01     PERCENT DISCREPANCY =           0.01






         TIME SUMMARY AT END OF TIME STEP   30 IN STRESS PERIOD   14
                    SECONDS     MINUTES      HOURS       DAYS        YEARS
                    -----------------------------------------------------------
   TIME STEP LENGTH  87600.      1460.0      24.333      1.0139     2.77588E-03
 STRESS PERIOD TIME 2.62800E+06  43800.      730.00      30.417     8.32763E-02
         TOTAL TIME 3.67920E+07 6.13200E+05  10220.      425.83      1.1659    
1
1
                            STRESS PERIOD NO.   15, LENGTH =   2628000.    
                            -----------------------------------------------

                              NUMBER OF TIME STEPS =    30

                               MULTIPLIER FOR DELT =     1.000

                            INITIAL TIME STEP SIZE =   87600.00    

 WELL NO.  LAYER   ROW   COL   STRESS RATE         
 --------------------------------------------------
      1      1      6      4       0.000    
      2      1      6      7       0.000    
      3      1      7      4       0.000    
      4      1      7      5       0.000    
      5      1      8      4       0.000    
      6      1      8      5       0.000    
      7      1      9      4       0.000    
      8      1      9      5       0.000    
      9      1     10      4       0.000    
     10      1     10      5       0.000    

     10 WELLS

 REUSING NON-PARAMETER GHB CELLS FROM LAST STRESS PERIOD

      2 GHB CELLS

 REUSING STREAM SEGMENT DATA FROM LAST STRESS PERIOD



            AREAL INFILTRATION RATE
 READING ON UNIT   19 WITH FORMAT: (10F4.0)            

            1           2           3           4           5           6           7           8           9          10
 ........................................................................................................................
   1   1.0000E-10  2.0000E-10   0.000       0.000       0.000       0.000       0.000       0.000       0.000       0.000    
   2   2.0000E-10  1.0000E-10  2.0000E-10   0.000       0.000      8.0000E-10  8.0000E-10  5.0000E-10   0.000       0.000    
   3    0.000      5.0000E-10  1.0000E-10  1.0000E-10  8.0000E-10  8.0000E-10  5.0000E-10  5.0000E-10   0.000       0.000    
   4   8.0000E-10  5.0000E-10  1.0000E-10  1.0000E-10  1.0000E-10  1.0000E-10  1.0000E-10  1.0000E-10  2.0000E-10   0.000    
   5   8.0000E-10  5.0000E-10  1.0000E-10  1.0000E-10  1.0000E-10  1.0000E-10  1.0000E-10  1.0000E-10  1.0000E-10  1.0000E-10
   6   8.0000E-10  5.0000E-10  5.0000E-10  2.0000E-10  2.0000E-10  1.0000E-10  1.0000E-10  1.0000E-10  1.0000E-10  5.0000E-10
   7   8.0000E-10  5.0000E-10  5.0000E-10  2.0000E-10  2.0000E-10  1.0000E-10  1.0000E-10  2.0000E-10  2.0000E-10   0.000    
   8    0.000      5.0000E-10  5.0000E-10  2.0000E-10  2.0000E-10  1.0000E-10  1.0000E-10  2.0000E-10  5.0000E-10   0.000    
   9    0.000      5.0000E-10  5.0000E-10  2.0000E-10  2.0000E-10  1.0000E-10  1.0000E-10  2.0000E-10  5.0000E-10   0.000    
  10    0.000      5.0000E-10  5.0000E-10  2.0000E-10  2.0000E-10  1.0000E-10  1.0000E-10  2.0000E-10  5.0000E-10  8.0000E-10
  11    0.000      1.0000E-10  1.0000E-10  1.0000E-10  1.0000E-10  1.0000E-10  1.0000E-10  2.0000E-10  5.0000E-10   0.000    
  12   1.0000E-10  1.0000E-10  1.0000E-10  1.0000E-10  1.0000E-10  1.0000E-10  1.0000E-10  1.0000E-10  2.0000E-10   0.000    
  13   1.0000E-10  1.0000E-10  2.0000E-10  2.0000E-10  2.0000E-10  2.0000E-10  2.0000E-10  1.0000E-10  1.0000E-10   0.000    
  14    0.000      2.0000E-10  5.0000E-10  5.0000E-10  5.0000E-10  5.0000E-10  5.0000E-10  2.0000E-10  1.0000E-10   0.000    
  15    0.000       0.000      8.0000E-10  8.0000E-10  8.0000E-10  8.0000E-10   0.000       0.000       0.000       0.000    

                  ET RATE =  1.000000E-10

 USING ET EXTINCTION DEPTH FROM PREVIOUS STRESS PERIOD. CURRENT PERIOD IS:      15

 USING EXTINCTION WATER CONTENT FROM PREVIOUS STRESS PERIOD. CURRENT PERIOD IS:      15
 
 SOLVING FOR HEAD 
                                                   Max.-Head-Change                         Max.-Flux-Residual
  Residual-Control   Outer-Iter.   Inner-Iter.     Column Row Layer    Maximum-Head-Change  Column Row Layer    Maximum-Flux-Residual          L2-NORM 
          0                 1           2             5    4     1       0.5691940384E-02       5    4    1         0.2975068952E+00      0.1850093700E+01
          0                 2           2             8    2     1       0.2555160476E-02       8    2    1         0.6634703395E-01      0.4335062765E+00
          0                 3           2             8    2     1       0.1148656157E-02       8    2    1         0.2982591797E-01      0.1536452691E+00
          0                 4           2             8    2     1       0.5163704696E-03       8    2    1         0.1340804945E-01      0.6571261931E-01
          0                 5           2             8    2     1       0.2321305158E-03       8    2    1         0.6027495133E-02      0.2921382985E-01
          0                 6           1             8    2     1       0.1043524270E-03       8    2    1         0.2709615168E-02      0.1306823111E-01
          0                 7           1             8    2     1       0.4691074750E-04       8    2    1         0.1218085689E-02      0.5851588408E-02
          0                 8           1             8    2     1       0.2108830220E-04       8    2    1         0.5475799508E-03      0.2620697911E-02
          0                 9           1             8    2     1       0.9480043913E-05       8    2    1         0.2461595612E-03      0.1173802238E-02

    ------------------------------------------------
       NWT REQUIRED            9 OUTER ITERATIONS 
       AND A TOTAL OF         14 INNER ITERATIONS.
    ------------------------------------------------

 NO OUTPUT CONTROL FOR STRESS PERIOD   15   TIME STEP    1
 
 SOLVING FOR HEAD 
                                                   Max.-Head-Change                         Max.-Flux-Residual
  Residual-Control   Outer-Iter.   Inner-Iter.     Column Row Layer    Maximum-Head-Change  Column Row Layer    Maximum-Flux-Residual          L2-NORM 
          0                 1           2             5    4     1       0.5706747178E-02       5    4    1         0.2982830612E+00      0.1853067507E+01
          0                 2           2             8    2     1       0.2554336732E-02       8    2    1         0.6632569376E-01      0.4337095468E+00
          0                 3           2             8    2     1       0.1148284813E-02       8    2    1         0.2981629765E-01      0.1536162739E+00
          0                 4           2             8    2     1       0.5162030717E-03       8    2    1         0.1340371262E-01      0.6568989190E-01
          0                 5           2             8    2     1       0.2320550556E-03       8    2    1         0.6025540140E-02      0.2920289575E-01
          0                 6           1             8    2     1       0.1043184119E-03       8    2    1         0.2708733899E-02      0.1306323886E-01
          0                 7           1             8    2     1       0.4689541432E-04       8    2    1         0.1217688439E-02      0.5849326032E-02
          0                 8           1             8    2     1       0.2108139088E-04       8    2    1         0.5474008919E-03      0.2619673013E-02
          0                 9           1             8    2     1       0.9476928905E-05       8    2    1         0.2460788543E-03      0.1173335589E-02

    ------------------------------------------------
       NWT REQUIRED            9 OUTER ITERATIONS 
       AND A TOTAL OF         14 INNER ITERATIONS.
    ------------------------------------------------

 NO OUTPUT CONTROL FOR STRESS PERIOD   15   TIME STEP    2
 
 SOLVING FOR HEAD 
                                                   Max.-Head-Change                         Max.-Flux-Residual
  Residual-Control   Outer-Iter.   Inner-Iter.     Column Row Layer    Maximum-Head-Change  Column Row Layer    Maximum-Flux-Residual          L2-NORM 
          0                 1           2             8    2     1       0.5680233196E-02       5    4    1         0.2966000848E+00      0.1849324125E+01
          0                 2           2             8    2     1       0.2553511121E-02       8    2    1         0.6630430466E-01      0.4334602633E+00
          0                 3           2             8    2     1       0.1147912640E-02       8    2    1         0.2980665558E-01      0.1535600561E+00
          0                 4           2             8    2     1       0.5160353042E-03       8    2    1         0.1339936613E-01      0.6566508485E-01
          0                 5           2             8    2     1       0.2319794314E-03       8    2    1         0.6023580851E-02      0.2919162951E-01
          0                 6           1             8    2     1       0.1042843241E-03       8    2    1         0.2707850723E-02      0.1305813902E-01
          0                 7           1             8    2     1       0.4688004925E-04       8    2    1         0.1217290338E-02      0.5847020236E-02
          0                 8           1             8    2     1       0.2107446518E-04       8    2    1         0.5472214469E-03      0.2618630630E-02
          0                 9           1             8    2     1       0.9473807144E-05       8    2    1         0.2459979697E-03      0.1172864605E-02

    ------------------------------------------------
       NWT REQUIRED            9 OUTER ITERATIONS 
       AND A TOTAL OF         14 INNER ITERATIONS.
    ------------------------------------------------

 NO OUTPUT CONTROL FOR STRESS PERIOD   15   TIME STEP    3
 
 SOLVING FOR HEAD 
                                                   Max.-Head-Change                         Max.-Flux-Residual
  Residual-Control   Outer-Iter.   Inner-Iter.     Column Row Layer    Maximum-Head-Change  Column Row Layer    Maximum-Flux-Residual          L2-NORM 
          0                 1           2             8    2     1       0.5678397583E-02       5    4    1         0.2950368150E+00      0.1846141984E+01
          0                 2           2             8    2     1       0.2552683639E-02       8    2    1         0.6628286701E-01      0.4332311464E+00
          0                 3           2             8    2     1       0.1147539624E-02       8    2    1         0.2979699167E-01      0.1535032847E+00
          0                 4           2             8    2     1       0.5158671583E-03       8    2    1         0.1339500981E-01      0.6563999138E-01
          0                 5           2             8    2     1       0.2319036372E-03       8    2    1         0.6021617140E-02      0.2918026581E-01
          0                 6           1             8    2     1       0.1042501591E-03       8    2    1         0.2706965550E-02      0.1305299932E-01
          0                 7           1             8    2     1       0.4686464966E-04       8    2    1         0.1216891345E-02      0.5844697082E-02
          0                 8           1             8    2     1       0.2106752398E-04       8    2    1         0.5470416014E-03      0.2617582419E-02
          0                 9           1             8    2     1       0.9470678505E-05       8    2    1         0.2459169052E-03      0.1172390521E-02

    ------------------------------------------------
       NWT REQUIRED            9 OUTER ITERATIONS 
       AND A TOTAL OF         14 INNER ITERATIONS.
    ------------------------------------------------

 NO OUTPUT CONTROL FOR STRESS PERIOD   15   TIME STEP    4
 
 SOLVING FOR HEAD 
                                                   Max.-Head-Change                         Max.-Flux-Residual
  Residual-Control   Outer-Iter.   Inner-Iter.     Column Row Layer    Maximum-Head-Change  Column Row Layer    Maximum-Flux-Residual          L2-NORM 
          0                 1           2             8    2     1       0.5676513751E-02       5    4    1         0.2935775514E+00      0.1843182979E+01
          0                 2           2             8    2     1       0.2551834562E-02       8    2    1         0.6626086689E-01      0.4329875205E+00
          0                 3           2             8    2     1       0.1147156937E-02       8    2    1         0.2978707586E-01      0.1534432943E+00
          0                 4           2             8    2     1       0.5156949050E-03       8    2    1         0.1339054068E-01      0.6561432444E-01
          0                 5           2             8    2     1       0.2318261638E-03       8    2    1         0.6019606094E-02      0.2916873018E-01
          0                 6           1             8    2     1       0.1042153354E-03       8    2    1         0.2706061155E-02      0.1304779884E-01
          0                 7           1             8    2     1       0.4684900646E-04       8    2    1         0.1216484874E-02      0.5842352488E-02
          0                 8           1             8    2     1       0.2106050086E-04       8    2    1         0.5468590249E-03      0.2616525495E-02
          0                 9           1             8    2     1       0.9467527606E-05       8    2    1         0.2458349478E-03      0.1171917894E-02

    ------------------------------------------------
       NWT REQUIRED            9 OUTER ITERATIONS 
       AND A TOTAL OF         14 INNER ITERATIONS.
    ------------------------------------------------

 NO OUTPUT CONTROL FOR STRESS PERIOD   15   TIME STEP    5
 
 SOLVING FOR HEAD 
                                                   Max.-Head-Change                         Max.-Flux-Residual
  Residual-Control   Outer-Iter.   Inner-Iter.     Column Row Layer    Maximum-Head-Change  Column Row Layer    Maximum-Flux-Residual          L2-NORM 
          0                 1           2             8    2     1       0.5674671839E-02       5    4    1         0.2922201215E+00      0.1840644291E+01
          0                 2           2             8    2     1       0.2551005240E-02       8    2    1         0.6623935849E-01      0.4327832743E+00
          0                 3           2             8    2     1       0.1146783763E-02       8    2    1         0.2977739276E-01      0.1533867267E+00
          0                 4           2             8    2     1       0.5155268646E-03       8    2    1         0.1338618401E-01      0.6558901541E-01
          0                 5           2             8    2     1       0.2317504819E-03       8    2    1         0.6017643926E-02      0.2915726503E-01
          0                 6           1             8    2     1       0.1041812500E-03       8    2    1         0.2705177433E-02      0.1304261402E-01
          0                 7           1             8    2     1       0.4683365490E-04       8    2    1         0.1216086864E-02      0.5840010763E-02
          0                 8           1             8    2     1       0.2105358716E-04       8    2    1         0.5466797743E-03      0.2615465763E-02
          0                 9           1             8    2     1       0.9464413724E-05       8    2    1         0.2457542190E-03      0.1171436167E-02

    ------------------------------------------------
       NWT REQUIRED            9 OUTER ITERATIONS 
       AND A TOTAL OF         14 INNER ITERATIONS.
    ------------------------------------------------

 NO OUTPUT CONTROL FOR STRESS PERIOD   15   TIME STEP    6
 
 SOLVING FOR HEAD 
                                                   Max.-Head-Change                         Max.-Flux-Residual
  Residual-Control   Outer-Iter.   Inner-Iter.     Column Row Layer    Maximum-Head-Change  Column Row Layer    Maximum-Flux-Residual          L2-NORM 
          0                 1           2             8    2     1       0.5672829221E-02       5    4    1         0.2909502474E+00      0.1838394706E+01
          0                 2           2             8    2     1       0.2550175420E-02       8    2    1         0.6621784294E-01      0.4325749882E+00
          0                 3           2             8    2     1       0.1146410056E-02       8    2    1         0.2976770328E-01      0.1533273775E+00
          0                 4           2             8    2     1       0.5153585680E-03       8    2    1         0.1338182039E-01      0.6556308022E-01
          0                 5           2             8    2     1       0.2316746908E-03       8    2    1         0.6015678799E-02      0.2914558178E-01
          0                 6           1             8    2     1       0.1041471182E-03       8    2    1         0.2704292457E-02      0.1303734161E-01
          0                 7           1             8    2     1       0.4681828395E-04       8    2    1         0.1215688326E-02      0.5837629114E-02
          0                 8           1             8    2     1       0.2104666534E-04       8    2    1         0.5465003009E-03      0.2614391100E-02
          0                 9           1             8    2     1       0.9461296840E-05       8    2    1         0.2456733956E-03      0.1170954737E-02

    ------------------------------------------------
       NWT REQUIRED            9 OUTER ITERATIONS 
       AND A TOTAL OF         14 INNER ITERATIONS.
    ------------------------------------------------

 NO OUTPUT CONTROL FOR STRESS PERIOD   15   TIME STEP    7
 
 SOLVING FOR HEAD 
                                                   Max.-Head-Change                         Max.-Flux-Residual
  Residual-Control   Outer-Iter.   Inner-Iter.     Column Row Layer    Maximum-Head-Change  Column Row Layer    Maximum-Flux-Residual          L2-NORM 
          0                 1           2             8    2     1       0.5670985451E-02       5    4    1         0.2897611873E+00      0.1836408071E+01
          0                 2           2             8    2     1       0.2549345109E-02       8    2    1         0.6619631408E-01      0.4323836430E+00
          0                 3           2             8    2     1       0.1146036141E-02       8    2    1         0.2975800811E-01      0.1532689248E+00
          0                 4           2             8    2     1       0.5151901824E-03       8    2    1         0.1337745435E-01      0.6553716186E-01
          0                 5           2             8    2     1       0.2315988622E-03       8    2    1         0.6013712641E-02      0.2913387823E-01
          0                 6           1             8    2     1       0.1041129703E-03       8    2    1         0.2703407038E-02      0.1303205611E-01
          0                 7           1             8    2     1       0.4680290662E-04       8    2    1         0.1215289599E-02      0.5835243373E-02
          0                 8           1             8    2     1       0.2103974039E-04       8    2    1         0.5463207430E-03      0.2613315974E-02
          0                 9           1             8    2     1       0.9458178205E-05       8    2    1         0.2455925360E-03      0.1170465579E-02

    ------------------------------------------------
       NWT REQUIRED            9 OUTER ITERATIONS 
       AND A TOTAL OF         14 INNER ITERATIONS.
    ------------------------------------------------

 NO OUTPUT CONTROL FOR STRESS PERIOD   15   TIME STEP    8
 
 SOLVING FOR HEAD 
                                                   Max.-Head-Change                         Max.-Flux-Residual
  Residual-Control   Outer-Iter.   Inner-Iter.     Column Row Layer    Maximum-Head-Change  Column Row Layer    Maximum-Flux-Residual          L2-NORM 
          0                 1           2             8    2     1       0.5669096372E-02       5    4    1         0.2886525961E+00      0.1834686358E+01
          0                 2           2             8    2     1       0.2548494449E-02       8    2    1         0.6617425643E-01      0.4322116862E+00
          0                 3           2             8    2     1       0.1145653087E-02       8    2    1         0.2974807548E-01      0.1532119632E+00
          0                 4           2             8    2     1       0.5150176934E-03       8    2    1         0.1337298167E-01      0.6551137378E-01
          0                 5           2             8    2     1       0.2315211909E-03       8    2    1         0.6011698600E-02      0.2912222038E-01
          0                 6           1             8    2     1       0.1040779955E-03       8    2    1         0.2702500123E-02      0.1302681989E-01
          0                 7           1             8    2     1       0.4678715763E-04       8    2    1         0.1214881218E-02      0.5832859790E-02
          0                 8           1             8    2     1       0.2103264887E-04       8    2    1         0.5461368502E-03      0.2612239678E-02
          0                 9           1             8    2     1       0.9454984662E-05       8    2    1         0.2455097284E-03      0.1169979424E-02

    ------------------------------------------------
       NWT REQUIRED            9 OUTER ITERATIONS 
       AND A TOTAL OF         14 INNER ITERATIONS.
    ------------------------------------------------

 NO OUTPUT CONTROL FOR STRESS PERIOD   15   TIME STEP    9
 
 SOLVING FOR HEAD 
                                                   Max.-Head-Change                         Max.-Flux-Residual
  Residual-Control   Outer-Iter.   Inner-Iter.     Column Row Layer    Maximum-Head-Change  Column Row Layer    Maximum-Flux-Residual          L2-NORM 
          0                 1           2             8    2     1       0.5667250558E-02       5    4    1         0.2876183477E+00      0.1833038642E+01
          0                 2           2             8    2     1       0.2547663226E-02       8    2    1         0.6615270373E-01      0.4320077223E+00
          0                 3           2             8    2     1       0.1145278765E-02       8    2    1         0.2973836969E-01      0.1531511343E+00
          0                 4           2             8    2     1       0.5148491272E-03       8    2    1         0.1336861090E-01      0.6548509768E-01
          0                 5           2             8    2     1       0.2314452815E-03       8    2    1         0.6009730332E-02      0.2911040388E-01
          0                 6           1             8    2     1       0.1040438121E-03       8    2    1         0.2701613769E-02      0.1302146293E-01
          0                 7           1             8    2     1       0.4677176405E-04       8    2    1         0.1214482073E-02      0.5830463721E-02
          0                 8           1             8    2     1       0.2102571692E-04       8    2    1         0.5459571093E-03      0.2611157281E-02
          0                 9           1             8    2     1       0.9451863276E-05       8    2    1         0.2454287886E-03      0.1169492258E-02

    ------------------------------------------------
       NWT REQUIRED            9 OUTER ITERATIONS 
       AND A TOTAL OF         14 INNER ITERATIONS.
    ------------------------------------------------

 NO OUTPUT CONTROL FOR STRESS PERIOD   15   TIME STEP   10
 
 SOLVING FOR HEAD 
                                                   Max.-Head-Change                         Max.-Flux-Residual
  Residual-Control   Outer-Iter.   Inner-Iter.     Column Row Layer    Maximum-Head-Change  Column Row Layer    Maximum-Flux-Residual          L2-NORM 
          0                 1           2             8    2     1       0.5665403638E-02       5    4    1         0.2866528032E+00      0.1831455400E+01
          0                 2           2             8    2     1       0.2546831488E-02       8    2    1         0.6613113804E-01      0.4318270083E+00
          0                 3           2             8    2     1       0.1144904204E-02       8    2    1         0.2972865785E-01      0.1530918451E+00
          0                 4           2             8    2     1       0.5146804496E-03       8    2    1         0.1336423731E-01      0.6545889147E-01
          0                 5           2             8    2     1       0.2313693207E-03       8    2    1         0.6007760757E-02      0.2909860037E-01
          0                 6           1             8    2     1       0.1040096045E-03       8    2    1         0.2700726806E-02      0.1301613802E-01
          0                 7           1             8    2     1       0.4675635946E-04       8    2    1         0.1214082650E-02      0.5828061553E-02
          0                 8           1             8    2     1       0.2101877971E-04       8    2    1         0.5457772391E-03      0.2610076221E-02
          0                 9           1             8    2     1       0.9448739264E-05       8    2    1         0.2453477915E-03      0.1169003617E-02

    ------------------------------------------------
       NWT REQUIRED            9 OUTER ITERATIONS 
       AND A TOTAL OF         14 INNER ITERATIONS.
    ------------------------------------------------

 NO OUTPUT CONTROL FOR STRESS PERIOD   15   TIME STEP   11
 
 SOLVING FOR HEAD 
                                                   Max.-Head-Change                         Max.-Flux-Residual
  Residual-Control   Outer-Iter.   Inner-Iter.     Column Row Layer    Maximum-Head-Change  Column Row Layer    Maximum-Flux-Residual          L2-NORM 
          0                 1           2             8    2     1       0.5663511437E-02       5    4    1         0.2857444476E+00      0.1830207325E+01
          0                 2           2             8    2     1       0.2545979461E-02       8    2    1         0.6610904411E-01      0.4316711516E+00
          0                 3           2             8    2     1       0.1144520551E-02       8    2    1         0.2971870931E-01      0.1530342612E+00
          0                 4           2             8    2     1       0.5145076980E-03       8    2    1         0.1335975766E-01      0.6543264920E-01
          0                 5           2             8    2     1       0.2312915345E-03       8    2    1         0.6005743665E-02      0.2908671442E-01
          0                 6           1             8    2     1       0.1039745795E-03       8    2    1         0.2699818555E-02      0.1301077275E-01
          0                 7           1             8    2     1       0.4674058858E-04       8    2    1         0.1213673684E-02      0.5825640654E-02
          0                 8           1             8    2     1       0.2101167843E-04       8    2    1         0.5455930906E-03      0.2608984231E-02
          0                 9           1             8    2     1       0.9445541845E-05       8    2    1         0.2452648745E-03      0.1168516379E-02

    ------------------------------------------------
       NWT REQUIRED            9 OUTER ITERATIONS 
       AND A TOTAL OF         14 INNER ITERATIONS.
    ------------------------------------------------

 NO OUTPUT CONTROL FOR STRESS PERIOD   15   TIME STEP   12
 
 SOLVING FOR HEAD 
                                                   Max.-Head-Change                         Max.-Flux-Residual
  Residual-Control   Outer-Iter.   Inner-Iter.     Column Row Layer    Maximum-Head-Change  Column Row Layer    Maximum-Flux-Residual          L2-NORM 
          0                 1           2             8    2     1       0.5661662572E-02       5    4    1         0.2848950333E+00      0.1829119670E+01
          0                 2           2             8    2     1       0.2545146856E-02       8    2    1         0.6608745575E-01      0.4315138076E+00
          0                 3           2             8    2     1       0.1144145605E-02       8    2    1         0.2970898739E-01      0.1529749862E+00
          0                 4           2             8    2     1       0.5143388494E-03       8    2    1         0.1335537960E-01      0.6540619266E-01
          0                 5           2             8    2     1       0.2312154977E-03       8    2    1         0.6003772101E-02      0.2907481384E-01
          0                 6           1             8    2     1       0.1039403384E-03       8    2    1         0.2698930710E-02      0.1300540926E-01
          0                 7           1             8    2     1       0.4672516886E-04       8    2    1         0.1213273868E-02      0.5823292801E-02
          0                 8           1             8    2     1       0.2100473485E-04       8    2    1         0.5454130481E-03      0.2608060533E-02
          0                 9           1             8    2     1       0.9442415082E-05       8    2    1         0.2451837980E-03      0.1168025263E-02

    ------------------------------------------------
       NWT REQUIRED            9 OUTER ITERATIONS 
       AND A TOTAL OF         14 INNER ITERATIONS.
    ------------------------------------------------

 NO OUTPUT CONTROL FOR STRESS PERIOD   15   TIME STEP   13
 
 SOLVING FOR HEAD 
                                                   Max.-Head-Change                         Max.-Flux-Residual
  Residual-Control   Outer-Iter.   Inner-Iter.     Column Row Layer    Maximum-Head-Change  Column Row Layer    Maximum-Flux-Residual          L2-NORM 
          0                 1           2             8    2     1       0.5659768329E-02       5    4    1         0.2840938393E+00      0.1827900406E+01
          0                 2           2             8    2     1       0.2544293856E-02       8    2    1         0.6606533773E-01      0.4313420453E+00
          0                 3           2             8    2     1       0.1143761490E-02       8    2    1         0.2969902737E-01      0.1529149861E+00
          0                 4           2             8    2     1       0.5141658794E-03       8    2    1         0.1335089451E-01      0.6537967133E-01
          0                 5           2             8    2     1       0.2311376084E-03       8    2    1         0.6001752433E-02      0.2906287456E-01
          0                 6           1             8    2     1       0.1039052645E-03       8    2    1         0.2698021244E-02      0.1300002648E-01
          0                 7           1             8    2     1       0.4670937522E-04       8    2    1         0.1212864334E-02      0.5820796431E-02
          0                 8           1             8    2     1       0.2099762307E-04       8    2    1         0.5452286357E-03      0.2606800037E-02
          0                 9           1             8    2     1       0.9439212535E-05       8    2    1         0.2451007567E-03      0.1167526899E-02

    ------------------------------------------------
       NWT REQUIRED            9 OUTER ITERATIONS 
       AND A TOTAL OF         14 INNER ITERATIONS.
    ------------------------------------------------

 NO OUTPUT CONTROL FOR STRESS PERIOD   15   TIME STEP   14
 
 SOLVING FOR HEAD 
                                                   Max.-Head-Change                         Max.-Flux-Residual
  Residual-Control   Outer-Iter.   Inner-Iter.     Column Row Layer    Maximum-Head-Change  Column Row Layer    Maximum-Flux-Residual          L2-NORM 
          0                 1           2             8    2     1       0.5657873145E-02       5    4    1         0.2833434250E+00      0.1826841554E+01
          0                 2           2             8    2     1       0.2543440479E-02       8    2    1         0.6604320893E-01      0.4310986691E+00
          0                 3           2             8    2     1       0.1143377227E-02       8    2    1         0.2968906307E-01      0.1528011457E+00
          0                 4           2             8    2     1       0.5139928525E-03       8    2    1         0.1334640773E-01      0.6532569675E-01
          0                 5           2             8    2     1       0.2310596979E-03       8    2    1         0.5999732117E-02      0.2903791587E-01
          0                 6           1             8    2     1       0.1038701829E-03       8    2    1         0.2697111533E-02      0.1298858149E-01
          0                 7           1             8    2     1       0.4669357883E-04       8    2    1         0.1212454711E-02      0.5815537540E-02
          0                 8           1             8    2     1       0.2099051016E-04       8    2    1         0.5450441911E-03      0.2604397665E-02
          0                 9           1             8    2     1       0.9436010113E-05       8    2    1         0.2450177085E-03      0.1166435250E-02

    ------------------------------------------------
       NWT REQUIRED            9 OUTER ITERATIONS 
       AND A TOTAL OF         14 INNER ITERATIONS.
    ------------------------------------------------

 NO OUTPUT CONTROL FOR STRESS PERIOD   15   TIME STEP   15
 
 SOLVING FOR HEAD 
                                                   Max.-Head-Change                         Max.-Flux-Residual
  Residual-Control   Outer-Iter.   Inner-Iter.     Column Row Layer    Maximum-Head-Change  Column Row Layer    Maximum-Flux-Residual          L2-NORM 
          0                 1           2             8    2     1       0.5656021256E-02       5    4    1         0.2826398982E+00      0.1825191465E+01
          0                 2           2             8    2     1       0.2542606489E-02       8    2    1         0.6602158515E-01      0.4307886349E+00
          0                 3           2             8    2     1       0.1143001646E-02       8    2    1         0.2967932491E-01      0.1527023875E+00
          0                 4           2             8    2     1       0.5138237132E-03       8    2    1         0.1334202223E-01      0.6528514346E-01
          0                 5           2             8    2     1       0.2309835283E-03       8    2    1         0.5997757157E-02      0.2902016672E-01
          0                 6           1             8    2     1       0.1038358813E-03       8    2    1         0.2696222139E-02      0.1298070457E-01
          0                 7           1             8    2     1       0.4667813173E-04       8    2    1         0.1212054187E-02      0.5812060291E-02
          0                 8           1             8    2     1       0.2098355395E-04       8    2    1         0.5448638231E-03      0.2602853725E-02
          0                 9           1             8    2     1       0.9432877597E-05       8    2    1         0.2449364843E-03      0.1165745657E-02

    ------------------------------------------------
       NWT REQUIRED            9 OUTER ITERATIONS 
       AND A TOTAL OF         14 INNER ITERATIONS.
    ------------------------------------------------

 NO OUTPUT CONTROL FOR STRESS PERIOD   15   TIME STEP   16
 
 SOLVING FOR HEAD 
                                                   Max.-Head-Change                         Max.-Flux-Residual
  Residual-Control   Outer-Iter.   Inner-Iter.     Column Row Layer    Maximum-Head-Change  Column Row Layer    Maximum-Flux-Residual          L2-NORM 
          0                 1           2             8    2     1       0.5654123957E-02       5    4    1         0.2819799014E+00      0.1823642553E+01
          0                 2           2             8    2     1       0.2541752130E-02       8    2    1         0.6599943151E-01      0.4305298076E+00
          0                 3           2             8    2     1       0.1142616928E-02       8    2    1         0.2966934908E-01      0.1526325651E+00
          0                 4           2             8    2     1       0.5136504757E-03       8    2    1         0.1333753012E-01      0.6525786038E-01
          0                 5           2             8    2     1       0.2309055199E-03       8    2    1         0.5995734367E-02      0.2900819242E-01
          0                 6           1             8    2     1       0.1038007547E-03       8    2    1         0.2695311290E-02      0.1297532556E-01
          0                 7           1             8    2     1       0.4666231470E-04       8    2    1         0.1211644041E-02      0.5809633609E-02
          0                 8           1             8    2     1       0.2097643216E-04       8    2    1         0.5446791384E-03      0.2601758967E-02
          0                 9           1             8    2     1       0.9429670173E-05       8    2    1         0.2448533158E-03      0.1165255836E-02

    ------------------------------------------------
       NWT REQUIRED            9 OUTER ITERATIONS 
       AND A TOTAL OF         14 INNER ITERATIONS.
    ------------------------------------------------

 NO OUTPUT CONTROL FOR STRESS PERIOD   15   TIME STEP   17
 
 SOLVING FOR HEAD 
                                                   Max.-Head-Change                         Max.-Flux-Residual
  Residual-Control   Outer-Iter.   Inner-Iter.     Column Row Layer    Maximum-Head-Change  Column Row Layer    Maximum-Flux-Residual          L2-NORM 
          0                 1           2             8    2     1       0.5652225742E-02       5    4    1         0.2813539466E+00      0.1822730066E+01
          0                 2           2             8    2     1       0.2540897388E-02       8    2    1         0.6597726733E-01      0.4303702086E+00
          0                 3           2             8    2     1       0.1142232050E-02       8    2    1         0.2965936884E-01      0.1525737953E+00
          0                 4           2             8    2     1       0.5134771722E-03       8    2    1         0.1333303617E-01      0.6523148639E-01
          0                 5           2             8    2     1       0.2308274848E-03       8    2    1         0.5993710821E-02      0.2899628552E-01
          0                 6           1             8    2     1       0.1037656172E-03       8    2    1         0.2694400127E-02      0.1296995125E-01
          0                 7           1             8    2     1       0.4664649318E-04       8    2    1         0.1211233765E-02      0.5807208576E-02
          0                 8           1             8    2     1       0.2096930787E-04       8    2    1         0.5444944021E-03      0.2600665206E-02
          0                 9           1             8    2     1       0.9426462624E-05       8    2    1         0.2447701381E-03      0.1164758860E-02

    ------------------------------------------------
       NWT REQUIRED            9 OUTER ITERATIONS 
       AND A TOTAL OF         14 INNER ITERATIONS.
    ------------------------------------------------

 NO OUTPUT CONTROL FOR STRESS PERIOD   15   TIME STEP   18
 
 SOLVING FOR HEAD 
                                                   Max.-Head-Change                         Max.-Flux-Residual
  Residual-Control   Outer-Iter.   Inner-Iter.     Column Row Layer    Maximum-Head-Change  Column Row Layer    Maximum-Flux-Residual          L2-NORM 
          0                 1           2             8    2     1       0.5650326595E-02       5    4    1         0.2807657663E+00      0.1822094502E+01
          0                 2           2             8    2     1       0.2540042188E-02       8    2    1         0.6595509208E-01      0.4302518460E+00
          0                 3           2             8    2     1       0.1141846950E-02       8    2    1         0.2964938317E-01      0.1525178509E+00
          0                 4           2             8    2     1       0.5133037607E-03       8    2    1         0.1332853958E-01      0.6520530017E-01
          0                 5           2             8    2     1       0.2307493977E-03       8    2    1         0.5991686005E-02      0.2898439060E-01
          0                 6           1             8    2     1       0.1037304552E-03       8    2    1         0.2693488357E-02      0.1296457766E-01
          0                 7           1             8    2     1       0.4663065990E-04       8    2    1         0.1210823196E-02      0.5804784744E-02
          0                 8           1             8    2     1       0.2096217808E-04       8    2    1         0.5443095236E-03      0.2599569558E-02
          0                 9           1             8    2     1       0.9423252574E-05       8    2    1         0.2446868915E-03      0.1164265259E-02

    ------------------------------------------------
       NWT REQUIRED            9 OUTER ITERATIONS 
       AND A TOTAL OF         14 INNER ITERATIONS.
    ------------------------------------------------

 NO OUTPUT CONTROL FOR STRESS PERIOD   15   TIME STEP   19
 
 SOLVING FOR HEAD 
                                                   Max.-Head-Change                         Max.-Flux-Residual
  Residual-Control   Outer-Iter.   Inner-Iter.     Column Row Layer    Maximum-Head-Change  Column Row Layer    Maximum-Flux-Residual          L2-NORM 
          0                 1           2             8    2     1       0.5648426500E-02       5    4    1         0.2802125808E+00      0.1821502873E+01
          0                 2           2             8    2     1       0.2539186591E-02       8    2    1         0.6593290589E-01      0.4301224940E+00
          0                 3           2             8    2     1       0.1141461684E-02       8    2    1         0.2963939293E-01      0.1524605039E+00
          0                 4           2             8    2     1       0.5131302805E-03       8    2    1         0.1332404109E-01      0.6517880527E-01
          0                 5           2             8    2     1       0.2306712827E-03       8    2    1         0.5989660396E-02      0.2897239190E-01
          0                 6           1             8    2     1       0.1036952810E-03       8    2    1         0.2692576254E-02      0.1295915946E-01
          0                 7           1             8    2     1       0.4661482174E-04       8    2    1         0.1210412497E-02      0.5802340926E-02
          0                 8           1             8    2     1       0.2095504679E-04       8    2    1         0.5441245969E-03      0.2598467644E-02
          0                 9           1             8    2     1       0.9420040898E-05       8    2    1         0.2446036215E-03      0.1163772137E-02

    ------------------------------------------------
       NWT REQUIRED            9 OUTER ITERATIONS 
       AND A TOTAL OF         14 INNER ITERATIONS.
    ------------------------------------------------

 NO OUTPUT CONTROL FOR STRESS PERIOD   15   TIME STEP   20
 
 SOLVING FOR HEAD 
                                                   Max.-Head-Change                         Max.-Flux-Residual
  Residual-Control   Outer-Iter.   Inner-Iter.     Column Row Layer    Maximum-Head-Change  Column Row Layer    Maximum-Flux-Residual          L2-NORM 
          0                 1           2             8    2     1       0.5646525520E-02       6    4    1         0.2797264330E+00      0.1820794397E+01
          0                 2           2             8    2     1       0.2538330602E-02       8    2    1         0.6591070941E-01      0.4299850569E+00
          0                 3           2             8    2     1       0.1141076244E-02       8    2    1         0.2962939812E-01      0.1524018112E+00
          0                 4           2             8    2     1       0.5129567239E-03       8    2    1         0.1331954058E-01      0.6515227115E-01
          0                 5           2             8    2     1       0.2305931332E-03       8    2    1         0.5987633892E-02      0.2896040665E-01
          0                 6           1             8    2     1       0.1036600925E-03       8    2    1         0.2691663764E-02      0.1295375485E-01
          0                 7           1             8    2     1       0.4659897721E-04       8    2    1         0.1210001619E-02      0.5799903286E-02
          0                 8           1             8    2     1       0.2094791212E-04       8    2    1         0.5439395864E-03      0.2597368415E-02
          0                 9           1             8    2     1       0.9416828722E-05       8    2    1         0.2445203178E-03      0.1163272982E-02

    ------------------------------------------------
       NWT REQUIRED            9 OUTER ITERATIONS 
       AND A TOTAL OF         14 INNER ITERATIONS.
    ------------------------------------------------

 NO OUTPUT CONTROL FOR STRESS PERIOD   15   TIME STEP   21
 
 SOLVING FOR HEAD 
                                                   Max.-Head-Change                         Max.-Flux-Residual
  Residual-Control   Outer-Iter.   Inner-Iter.     Column Row Layer    Maximum-Head-Change  Column Row Layer    Maximum-Flux-Residual          L2-NORM 
          0                 1           2             8    2     1       0.5644623680E-02       6    4    1         0.2797776154E+00      0.1820232776E+01
          0                 2           2             8    2     1       0.2537474234E-02       8    2    1         0.6588850293E-01      0.4298610754E+00
          0                 3           2             8    2     1       0.1140690637E-02       8    2    1         0.2961939889E-01      0.1523446680E+00
          0                 4           2             8    2     1       0.5127830928E-03       8    2    1         0.1331503811E-01      0.6512571026E-01
          0                 5           2             8    2     1       0.2305149514E-03       8    2    1         0.5985606529E-02      0.2894835730E-01
          0                 6           1             8    2     1       0.1036248891E-03       8    2    1         0.2690750890E-02      0.1294831525E-01
          0                 7           1             8    2     1       0.4658312592E-04       8    2    1         0.1209590577E-02      0.5797449878E-02
          0                 8           1             8    2     1       0.2094077520E-04       8    2    1         0.5437545095E-03      0.2596263793E-02
          0                 9           1             8    2     1       0.9413615295E-05       8    2    1         0.2444369813E-03      0.1162777448E-02

    ------------------------------------------------
       NWT REQUIRED            9 OUTER ITERATIONS 
       AND A TOTAL OF         14 INNER ITERATIONS.
    ------------------------------------------------

 NO OUTPUT CONTROL FOR STRESS PERIOD   15   TIME STEP   22
 
 SOLVING FOR HEAD 
                                                   Max.-Head-Change                         Max.-Flux-Residual
  Residual-Control   Outer-Iter.   Inner-Iter.     Column Row Layer    Maximum-Head-Change  Column Row Layer    Maximum-Flux-Residual          L2-NORM 
          0                 1           2             8    2     1       0.5642720927E-02       6    4    1         0.2798148340E+00      0.1819784096E+01
          0                 2           2             8    2     1       0.2536617419E-02       8    2    1         0.6586628561E-01      0.4297456154E+00
          0                 3           2             8    2     1       0.1140304813E-02       8    2    1         0.2960939439E-01      0.1522876527E+00
          0                 4           2             8    2     1       0.5126093577E-03       8    2    1         0.1331053309E-01      0.6509916165E-01
          0                 5           2             8    2     1       0.2304367196E-03       8    2    1         0.5983577937E-02      0.2893632545E-01
          0                 6           1             8    2     1       0.1035896620E-03       8    2    1         0.2689837428E-02      0.1294288678E-01
          0                 7           1             8    2     1       0.4656726388E-04       8    2    1         0.1209179255E-02      0.5795001959E-02
          0                 8           1             8    2     1       0.2093363228E-04       8    2    1         0.5435692928E-03      0.2595160488E-02
          0                 9           1             8    2     1       0.9410399117E-05       8    2    1         0.2443535845E-03      0.1162277244E-02

    ------------------------------------------------
       NWT REQUIRED            9 OUTER ITERATIONS 
       AND A TOTAL OF         14 INNER ITERATIONS.
    ------------------------------------------------

 NO OUTPUT CONTROL FOR STRESS PERIOD   15   TIME STEP   23
 
 SOLVING FOR HEAD 
                                                   Max.-Head-Change                         Max.-Flux-Residual
  Residual-Control   Outer-Iter.   Inner-Iter.     Column Row Layer    Maximum-Head-Change  Column Row Layer    Maximum-Flux-Residual          L2-NORM 
          0                 1           2             8    2     1       0.5640817290E-02       6    4    1         0.2798391301E+00      0.1818832942E+01
          0                 2           2             8    2     1       0.2535760256E-02       8    2    1         0.6584405821E-01      0.4294764218E+00
          0                 3           2             8    2     1       0.1139918856E-02       8    2    1         0.2959938593E-01      0.1522038753E+00
          0                 4           2             8    2     1       0.5124355720E-03       8    2    1         0.1330602654E-01      0.6506640207E-01
          0                 5           2             8    2     1       0.2303584692E-03       8    2    1         0.5981548768E-02      0.2892199669E-01
          0                 6           1             8    2     1       0.1035544284E-03       8    2    1         0.2688923761E-02      0.1293645022E-01
          0                 7           1             8    2     1       0.4655139958E-04       8    2    1         0.1208767865E-02      0.5792097710E-02
          0                 8           1             8    2     1       0.2092648949E-04       8    2    1         0.5433840616E-03      0.2593848534E-02
          0                 9           1             8    2     1       0.9407182689E-05       8    2    1         0.2442701814E-03      0.1161685822E-02

    ------------------------------------------------
       NWT REQUIRED            9 OUTER ITERATIONS 
       AND A TOTAL OF         14 INNER ITERATIONS.
    ------------------------------------------------

 NO OUTPUT CONTROL FOR STRESS PERIOD   15   TIME STEP   24
 
 SOLVING FOR HEAD 
                                                   Max.-Head-Change                         Max.-Flux-Residual
  Residual-Control   Outer-Iter.   Inner-Iter.     Column Row Layer    Maximum-Head-Change  Column Row Layer    Maximum-Flux-Residual          L2-NORM 
          0                 1           2             8    2     1       0.5638912751E-02       6    4    1         0.2798516594E+00      0.1817061895E+01
          0                 2           2             8    2     1       0.2534902630E-02       8    2    1         0.6582182001E-01      0.4291910634E+00
          0                 3           2             8    2     1       0.1139532664E-02       8    2    1         0.2958937194E-01      0.1521294554E+00
          0                 4           2             8    2     1       0.5122616698E-03       8    2    1         0.1330151722E-01      0.6503671494E-01
          0                 5           2             8    2     1       0.2302801619E-03       8    2    1         0.5979518223E-02      0.2890889996E-01
          0                 6           1             8    2     1       0.1035191670E-03       8    2    1         0.2688009410E-02      0.1293058374E-01
          0                 7           1             8    2     1       0.4653552166E-04       8    2    1         0.1208356137E-02      0.5789464771E-02
          0                 8           1             8    2     1       0.2091933969E-04       8    2    1         0.5431986634E-03      0.2592667163E-02
          0                 9           1             8    2     1       0.9403963260E-05       8    2    1         0.2441866995E-03      0.1161154851E-02

    ------------------------------------------------
       NWT REQUIRED            9 OUTER ITERATIONS 
       AND A TOTAL OF         14 INNER ITERATIONS.
    ------------------------------------------------

 NO OUTPUT CONTROL FOR STRESS PERIOD   15   TIME STEP   25
 
 SOLVING FOR HEAD 
                                                   Max.-Head-Change                         Max.-Flux-Residual
  Residual-Control   Outer-Iter.   Inner-Iter.     Column Row Layer    Maximum-Head-Change  Column Row Layer    Maximum-Flux-Residual          L2-NORM 
          0                 1           2             8    2     1       0.5636963055E-02       6    4    1         0.2798534710E+00      0.1816452187E+01
          0                 2           2             8    2     1       0.2534024815E-02       8    2    1         0.6579905522E-01      0.4290493832E+00
          0                 3           2             8    2     1       0.1139137446E-02       8    2    1         0.2957912253E-01      0.1520707583E+00
          0                 4           2             8    2     1       0.5120837328E-03       8    2    1         0.1329690265E-01      0.6501019617E-01
          0                 5           2             8    2     1       0.2302000499E-03       8    2    1         0.5977440620E-02      0.2889693005E-01
          0                 6           1             8    2     1       0.1034830993E-03       8    2    1         0.2687074028E-02      0.1292518442E-01
          0                 7           1             8    2     1       0.4651928320E-04       8    2    1         0.1207935009E-02      0.5787029997E-02
          0                 8           1             8    2     1       0.2091202894E-04       8    2    1         0.5430090642E-03      0.2591569775E-02
          0                 9           1             8    2     1       0.9400671799E-05       8    2    1         0.2441013388E-03      0.1160660108E-02

    ------------------------------------------------
       NWT REQUIRED            9 OUTER ITERATIONS 
       AND A TOTAL OF         14 INNER ITERATIONS.
    ------------------------------------------------

 NO OUTPUT CONTROL FOR STRESS PERIOD   15   TIME STEP   26
 
 SOLVING FOR HEAD 
                                                   Max.-Head-Change                         Max.-Flux-Residual
  Residual-Control   Outer-Iter.   Inner-Iter.     Column Row Layer    Maximum-Head-Change  Column Row Layer    Maximum-Flux-Residual          L2-NORM 
          0                 1           2             8    2     1       0.5635057016E-02       6    4    1         0.2798395584E+00      0.1815982457E+01
          0                 2           2             8    2     1       0.2533166530E-02       8    2    1         0.6577679958E-01      0.4289224784E+00
          0                 3           2             8    2     1       0.1138750964E-02       8    2    1         0.2956910085E-01      0.1520094126E+00
          0                 4           2             8    2     1       0.5119097029E-03       8    2    1         0.1329238994E-01      0.6498155423E-01
          0                 5           2             8    2     1       0.2301216863E-03       8    2    1         0.5975408586E-02      0.2888386099E-01
          0                 6           1             8    2     1       0.1034478129E-03       8    2    1         0.2686159025E-02      0.1291925023E-01
          0                 7           1             8    2     1       0.4650339452E-04       8    2    1         0.1207522999E-02      0.5784339880E-02
          0                 8           1             8    2     1       0.2090487451E-04       8    2    1         0.5428235436E-03      0.2590351251E-02
          0                 9           1             8    2     1       0.9397450619E-05       8    2    1         0.2440178038E-03      0.1160111659E-02

    ------------------------------------------------
       NWT REQUIRED            9 OUTER ITERATIONS 
       AND A TOTAL OF         14 INNER ITERATIONS.
    ------------------------------------------------

 NO OUTPUT CONTROL FOR STRESS PERIOD   15   TIME STEP   27
 
 SOLVING FOR HEAD 
                                                   Max.-Head-Change                         Max.-Flux-Residual
  Residual-Control   Outer-Iter.   Inner-Iter.     Column Row Layer    Maximum-Head-Change  Column Row Layer    Maximum-Flux-Residual          L2-NORM 
          0                 1           2             8    2     1       0.5633105781E-02       6    4    1         0.2798226252E+00      0.1815560792E+01
          0                 2           2             8    2     1       0.2532287996E-02       8    2    1         0.6575401669E-01      0.4287823522E+00
          0                 3           2             8    2     1       0.1138355411E-02       8    2    1         0.2955884299E-01      0.1519408666E+00
          0                 4           2             8    2     1       0.5117316091E-03       8    2    1         0.1328777142E-01      0.6495014445E-01
          0                 5           2             8    2     1       0.2300415021E-03       8    2    1         0.5973329149E-02      0.2886976676E-01
          0                 6           1             8    2     1       0.1034117115E-03       8    2    1         0.2685222787E-02      0.1291294482E-01
          0                 7           1             8    2     1       0.4648714030E-04       8    2    1         0.1207101469E-02      0.5781519314E-02
          0                 8           1             8    2     1       0.2089755664E-04       8    2    1         0.5426337577E-03      0.2589089188E-02
          0                 9           1             8    2     1       0.9394155656E-05       8    2    1         0.2439323541E-03      0.1159543968E-02

    ------------------------------------------------
       NWT REQUIRED            9 OUTER ITERATIONS 
       AND A TOTAL OF         14 INNER ITERATIONS.
    ------------------------------------------------

 NO OUTPUT CONTROL FOR STRESS PERIOD   15   TIME STEP   28
 
 SOLVING FOR HEAD 
                                                   Max.-Head-Change                         Max.-Flux-Residual
  Residual-Control   Outer-Iter.   Inner-Iter.     Column Row Layer    Maximum-Head-Change  Column Row Layer    Maximum-Flux-Residual          L2-NORM 
          0                 1           2             8    2     1       0.5631198197E-02       6    4    1         0.2797975194E+00      0.1815073032E+01
          0                 2           2             8    2     1       0.2531429031E-02       8    2    1         0.6573174309E-01      0.4286554999E+00
          0                 3           2             8    2     1       0.1137968631E-02       8    2    1         0.2954881343E-01      0.1518830951E+00
          0                 4           2             8    2     1       0.5115574484E-03       8    2    1         0.1328325525E-01      0.6492370348E-01
          0                 5           2             8    2     1       0.2299630810E-03       8    2    1         0.5971295597E-02      0.2885781611E-01
          0                 6           1             8    2     1       0.1033764002E-03       8    2    1         0.2684307121E-02      0.1290755416E-01
          0                 7           1             8    2     1       0.4647124062E-04       8    2    1         0.1206689169E-02      0.5779088787E-02
          0                 8           1             8    2     1       0.2089039759E-04       8    2    1         0.5424481116E-03      0.2587994050E-02
          0                 9           1             8    2     1       0.9390932099E-05       8    2    1         0.2438487634E-03      0.1159049826E-02

    ------------------------------------------------
       NWT REQUIRED            9 OUTER ITERATIONS 
       AND A TOTAL OF         14 INNER ITERATIONS.
    ------------------------------------------------

 NO OUTPUT CONTROL FOR STRESS PERIOD   15   TIME STEP   29
 
 SOLVING FOR HEAD 
                                                   Max.-Head-Change                         Max.-Flux-Residual
  Residual-Control   Outer-Iter.   Inner-Iter.     Column Row Layer    Maximum-Head-Change  Column Row Layer    Maximum-Flux-Residual          L2-NORM 
          0                 1           2             2   13     1       0.8408279493E-02       2   13    1         0.4760467156E+00      0.1929971937E+01
          0                 2           2             8    2     1       0.2530549838E-02       8    2    1         0.6570894277E-01      0.4366130061E+00
          0                 3           2             8    2     1       0.1137572789E-02       8    2    1         0.2953854790E-01      0.1523252550E+00
          0                 4           2             8    2     1       0.5113792278E-03       8    2    1         0.1327863336E-01      0.6493883850E-01
          0                 5           2             8    2     1       0.2298828410E-03       8    2    1         0.5969214684E-02      0.2885328591E-01
          0                 6           1             8    2     1       0.1033402742E-03       8    2    1         0.2683370235E-02      0.1290471062E-01
          0                 7           1             8    2     1       0.4645497565E-04       8    2    1         0.1206267357E-02      0.5777724164E-02
          0                 8           1             8    2     1       0.2088307459E-04       8    2    1         0.5422582037E-03      0.2587362963E-02
          0                 9           1             8    2     1       0.9387635511E-05       8    2    1         0.2437632657E-03      0.1158767729E-02

    ------------------------------------------------
       NWT REQUIRED            9 OUTER ITERATIONS 
       AND A TOTAL OF         14 INNER ITERATIONS.
    ------------------------------------------------

 NO OUTPUT CONTROL FOR STRESS PERIOD   15   TIME STEP   30



 STREAM LISTING     PERIOD     15   STEP       30

 LAYER ROW COL. STREAM  RCH.  FLOW INTO     FLOW TO   FLOW OUT OF   OVRLND.     DIRECT     STREAM       STREAM     STREAM     STREAM   STREAMBED  STREAMBED
                SEG.NO.  NO.  STRM. RCH.    AQUIFER    STRM. RCH.    RUNOFF     PRECIP       ET          HEAD       DEPTH      WIDTH   CONDCTNC.   GRADIENT

   1    1    1     1     1    3.8580E+01  2.9906E-10   3.8580E+01  0.000E+00  0.000E+00  0.000E+00  1.09437E+03  1.321E+00  1.538E+01  6.922E-11  1.440E+00
   1    2    2     1     2    3.8580E+01  4.6476E-10   3.8580E+01  0.000E+00  0.000E+00  0.000E+00  1.08938E+03  1.320E+00  1.537E+01  1.076E-10  1.440E+00
   1    3    3     1     3    3.8580E+01  3.9852E-10   3.8580E+01  0.000E+00  0.000E+00  0.000E+00  1.08374E+03  1.320E+00  1.537E+01  9.225E-11  1.440E+00
   1    3    4     1     4    3.8580E+01  3.6870E-10   3.8580E+01  0.000E+00  0.000E+00  0.000E+00  1.07873E+03  1.320E+00  1.538E+01  8.534E-11  1.440E+00
   1    4    5     2     1    3.6580E+01  3.5201E-01   3.6228E+01  0.000E+00  0.000E+00  0.000E+00  1.07345E+03  1.513E+00  1.200E+01  7.800E-02  1.504E+00
   1    5    6     2     2    3.6228E+01  2.7031E-01   3.5958E+01  0.000E+00  0.000E+00  0.000E+00  1.06801E+03  1.505E+00  1.200E+01  6.000E-02  1.502E+00
   1    6    6     2     3    3.5958E+01  2.6991E-01   3.5688E+01  0.000E+00  0.000E+00  0.000E+00  1.06329E+03  1.498E+00  1.200E+01  6.000E-02  1.499E+00
   1    7    6     2     4    3.5688E+01  2.6950E-01   3.5418E+01  0.000E+00  0.000E+00  0.000E+00  1.05857E+03  1.492E+00  1.200E+01  6.000E-02  1.497E+00
   1    8    6     2     5    3.5418E+01  2.6909E-01   3.5149E+01  0.000E+00  0.000E+00  0.000E+00  1.05384E+03  1.485E+00  1.200E+01  6.000E-02  1.495E+00
   1    3    5     3     1    2.0000E+00  2.8252E-01   1.7175E+00  0.000E+00  0.000E+00  0.000E+00  1.07555E+03  1.909E+00  9.636E+00  7.227E-02  1.955E+00
   1    3    6     3     2    1.7175E+00  2.4905E-01   1.4684E+00  0.000E+00  0.000E+00  0.000E+00  1.07264E+03  1.727E+00  8.909E+00  6.682E-02  1.864E+00
   1    3    7     3     3    1.4684E+00  1.9718E-01   1.2712E+00  0.000E+00  0.000E+00  0.000E+00  1.06987E+03  1.555E+00  8.218E+00  5.547E-02  1.777E+00
   1    4    8     3     4    1.2712E+00  2.2567E-01   1.0456E+00  0.000E+00  0.000E+00  0.000E+00  1.06682E+03  1.364E+00  7.455E+00  6.709E-02  1.682E+00
   1    5    8     3     5    1.0456E+00  1.5790E-01   8.8768E-01  0.000E+00  0.000E+00  0.000E+00  1.06362E+03  1.164E+00  6.655E+00  4.991E-02  1.582E+00
   1    6    8     3     6    8.8768E-01  5.5980E-02   8.3170E-01  0.000E+00  0.000E+00  0.000E+00  1.06158E+03  1.036E+00  6.145E+00  1.844E-02  1.518E+00
   1    5   10     4     1    1.0000E+01  9.0919E-02   9.9091E+00  0.000E+00  0.000E+00  0.000E+00  1.07836E+03  6.368E-01  1.000E+01  2.500E-02  1.212E+00
   1    5    9     4     2    9.9091E+00  1.8158E-01   9.7275E+00  0.000E+00  0.000E+00  0.000E+00  1.07154E+03  6.315E-01  1.000E+01  5.000E-02  1.211E+00
   1    6    8     4     3    9.7275E+00  1.2689E-01   9.6006E+00  0.000E+00  0.000E+00  0.000E+00  1.06381E+03  6.256E-01  1.000E+01  3.500E-02  1.209E+00
   1    6    8     5     1    1.0432E+01  2.2686E-09   1.0432E+01  0.000E+00  0.000E+00  0.000E+00  1.05868E+03  6.790E-01  1.542E+01  6.166E-10  1.226E+00
   1    7    7     5     2    1.0432E+01  2.8306E-09   1.0432E+01  0.000E+00  0.000E+00  0.000E+00  1.05418E+03  6.784E-01  1.539E+01  7.695E-10  1.226E+00
   1    8    7     5     3    1.0432E+01  1.9868E-09   1.0432E+01  0.000E+00  0.000E+00  0.000E+00  1.04993E+03  6.794E-01  1.543E+01  5.400E-10  1.226E+00
   1    8    6     5     4    1.0432E+01  1.4217E-09   1.0432E+01  0.000E+00  0.000E+00  0.000E+00  1.04693E+03  6.800E-01  1.545E+01  3.863E-10  1.227E+00
   1    9    6     6     1    4.5581E+01  2.8485E-01   4.5297E+01  0.000E+00  0.000E+00  0.000E+00  1.04447E+03  1.748E+00  1.200E+01  6.000E-02  1.583E+00
   1   10    7     6     2    4.5297E+01  2.8446E-01   4.5012E+01  0.000E+00  0.000E+00  0.000E+00  1.03992E+03  1.741E+00  1.200E+01  6.000E-02  1.580E+00
   1   11    7     6     3    4.5012E+01  2.8406E-01   4.4728E+01  0.000E+00  0.000E+00  0.000E+00  1.03537E+03  1.734E+00  1.200E+01  6.000E-02  1.578E+00
   1   12    7     6     4    4.4728E+01  2.8367E-01   4.4444E+01  0.000E+00  0.000E+00  0.000E+00  1.03082E+03  1.728E+00  1.200E+01  6.000E-02  1.576E+00
   1   13    7     6     5    4.4444E+01  1.1336E-01   4.4331E+01  0.000E+00  0.000E+00  0.000E+00  1.02763E+03  1.723E+00  1.200E+01  2.400E-02  1.574E+00
   1   14    9     7     1    1.5000E+02  2.9539E-08   1.5000E+02  0.000E+00  0.000E+00  0.000E+00  1.03986E+03  2.283E+00  5.528E+01  5.591E-09  1.761E+00
   1   13    8     7     2    1.5000E+02  3.2486E-14   1.5000E+02  0.000E+00  0.000E+00  0.000E+00  1.03478E+03  2.283E+00  5.527E+01  6.150E-15  1.761E+00
   1   13    7     7     3    1.5000E+02  2.9539E-08   1.5000E+02  0.000E+00  0.000E+00  0.000E+00  1.02970E+03  2.283E+00  5.528E+01  5.591E-09  1.761E+00
   1   13    6     8     1    1.9433E+02  2.7883E-09   1.9433E+02  0.000E+00  0.000E+00  0.000E+00  1.02497E+03  3.096E+00  4.489E+01  4.574E-10  2.032E+00
   1   13    5     8     2    1.9433E+02  2.7883E-12   1.9433E+02  0.000E+00  0.000E+00  0.000E+00  1.01872E+03  3.096E+00  4.489E+01  4.574E-13  2.032E+00
   1   13    4     8     3    1.9433E+02  1.9917E-12   1.9433E+02  0.000E+00  0.000E+00  0.000E+00  1.01247E+03  3.098E+00  4.492E+01  4.578E-13  1.450E+00
   1   13    3     8     4    1.9433E+02  3.3283E-09   1.9433E+02  0.000E+00  0.000E+00  0.000E+00  1.00623E+03  3.103E+00  4.499E+01  4.585E-09  2.420E-01
   1   13    2     8     5    1.9433E+02 -1.2222E+00   1.9555E+02  0.000E+00  0.000E+00  0.000E+00  9.99983E+02  3.108E+00  4.506E+01  4.592E+00 -8.872E-02
   1   13    1     8     6    1.9555E+02 -1.6128E+00   1.9717E+02  0.000E+00  0.000E+00  0.000E+00  9.94991E+02  3.116E+00  4.518E+01  2.763E+00 -1.946E-01
   1    6    8     9     1    0.0000E+00  0.0000E+00   0.0000E+00  0.000E+00  0.000E+00  0.000E+00  1.07850E+03  0.000E+00  4.000E+00  0.000E+00  1.000E+00





UNSATURATED ZONE PACKAGE VOLUMETRIC BUDGET FOR  TIME STEP    30 STRESS PERIOD   15
  ------------------------------------------------------------------------------



     CUMULATIVE VOLUMES      L**3       RATES FOR THIS TIME STEP      L**3/T
     ------------------                 ------------------------

           IN:                                      IN:
           ---                                      ---
        INFILTRATION =    63455013.1201          INFILTRATION =           0.8475

          OUT:                                     OUT:
          ----                                     ----
              UZF ET =   563989032.7817                UZF ET =           0.0143
        UZF RECHARGE =   994094647.7297          UZF RECHARGE =          25.6125

            IN - OUT = -1494628667.3913              IN - OUT =         -24.7793

          STORAGE:                                 STORAGE:
          --------                                 --------
      STORAGE CHANGE = -1494620879.7757        STORAGE CHANGE =         -24.7793

 PERCENT DISCREPANCY IS DIFFERENCE BETWEEN IN-OUT MINUS CHANGE IN STORAGE
 DIVIDED BY THE AVERAGE OF IN AND OUT TIMES 100

 PERCENT DISCREPANCY =          -0.00     PERCENT DISCREPANCY =          -0.00






1
  VOLUMETRIC BUDGET FOR ENTIRE MODEL AT END OF TIME STEP   30, STRESS PERIOD  15
  ------------------------------------------------------------------------------

     CUMULATIVE VOLUMES      L**3       RATES FOR THIS TIME STEP      L**3/T
     ------------------                 ------------------------

           IN:                                      IN:
           ---                                      ---
             STORAGE =    16149497.0000               STORAGE =           0.0000
       CONSTANT HEAD =           0.0000         CONSTANT HEAD =           0.0000
               WELLS =           0.0000                 WELLS =           0.0000
     HEAD DEP BOUNDS =    40984264.0000       HEAD DEP BOUNDS =           1.0044
      STREAM LEAKAGE =   152807056.0000        STREAM LEAKAGE =           4.2489
        UZF RECHARGE =   994094976.0000          UZF RECHARGE =          25.6126
               GW ET =           0.0000                 GW ET =           0.0000
     SURFACE LEAKAGE =           0.0000       SURFACE LEAKAGE =           0.0000

            TOTAL IN =  1204035840.0000              TOTAL IN =          30.8658

          OUT:                                     OUT:
          ----                                     ----
             STORAGE =  1056813824.0000               STORAGE =          27.7318
       CONSTANT HEAD =           0.0000         CONSTANT HEAD =           0.0000
               WELLS =     1059111.1250                 WELLS =           0.0000
     HEAD DEP BOUNDS =    11192027.0000       HEAD DEP BOUNDS =           0.2878
      STREAM LEAKAGE =    97373576.0000        STREAM LEAKAGE =           2.8350
        UZF RECHARGE =           0.0000          UZF RECHARGE =           0.0000
               GW ET =    37487680.0000                 GW ET =       7.3707E-03
     SURFACE LEAKAGE =           0.0000       SURFACE LEAKAGE =           0.0000

           TOTAL OUT =  1203926272.0000             TOTAL OUT =          30.8620

            IN - OUT =      109568.0000              IN - OUT =       3.8528E-03

 PERCENT DISCREPANCY =           0.01     PERCENT DISCREPANCY =           0.01






         TIME SUMMARY AT END OF TIME STEP   30 IN STRESS PERIOD   15
                    SECONDS     MINUTES      HOURS       DAYS        YEARS
                    -----------------------------------------------------------
   TIME STEP LENGTH  87600.      1460.0      24.333      1.0139     2.77588E-03
 STRESS PERIOD TIME 2.62800E+06  43800.      730.00      30.417     8.32763E-02
         TOTAL TIME 3.94200E+07 6.57000E+05  10950.      456.25      1.2491    
1
1
                            STRESS PERIOD NO.   16, LENGTH =   2628000.    
                            -----------------------------------------------

                              NUMBER OF TIME STEPS =    30

                               MULTIPLIER FOR DELT =     1.000

                            INITIAL TIME STEP SIZE =   87600.00    

 WELL NO.  LAYER   ROW   COL   STRESS RATE         
 --------------------------------------------------
      1      1      6      4       0.000    
      2      1      6      7       0.000    
      3      1      7      4       0.000    
      4      1      7      5       0.000    
      5      1      8      4       0.000    
      6      1      8      5       0.000    
      7      1      9      4       0.000    
      8      1      9      5       0.000    
      9      1     10      4       0.000    
     10      1     10      5       0.000    

     10 WELLS

 REUSING NON-PARAMETER GHB CELLS FROM LAST STRESS PERIOD

      2 GHB CELLS

 REUSING STREAM SEGMENT DATA FROM LAST STRESS PERIOD



            AREAL INFILTRATION RATE
 READING ON UNIT   19 WITH FORMAT: (10F4.0)            

            1           2           3           4           5           6           7           8           9          10
 ........................................................................................................................
   1   1.0000E-10  2.0000E-10   0.000       0.000       0.000       0.000       0.000       0.000       0.000       0.000    
   2   2.0000E-10  1.0000E-10  2.0000E-10   0.000       0.000      8.0000E-10  8.0000E-10  5.0000E-10   0.000       0.000    
   3    0.000      5.0000E-10  1.0000E-10  1.0000E-10  8.0000E-10  8.0000E-10  5.0000E-10  5.0000E-10   0.000       0.000    
   4   8.0000E-10  5.0000E-10  1.0000E-10  1.0000E-10  1.0000E-10  1.0000E-10  1.0000E-10  1.0000E-10  2.0000E-10   0.000    
   5   8.0000E-10  5.0000E-10  1.0000E-10  1.0000E-10  1.0000E-10  1.0000E-10  1.0000E-10  1.0000E-10  1.0000E-10  1.0000E-10
   6   8.0000E-10  5.0000E-10  5.0000E-10  2.0000E-10  2.0000E-10  1.0000E-10  1.0000E-10  1.0000E-10  1.0000E-10  5.0000E-10
   7   8.0000E-10  5.0000E-10  5.0000E-10  2.0000E-10  2.0000E-10  1.0000E-10  1.0000E-10  2.0000E-10  2.0000E-10   0.000    
   8    0.000      5.0000E-10  5.0000E-10  2.0000E-10  2.0000E-10  1.0000E-10  1.0000E-10  2.0000E-10  5.0000E-10   0.000    
   9    0.000      5.0000E-10  5.0000E-10  2.0000E-10  2.0000E-10  1.0000E-10  1.0000E-10  2.0000E-10  5.0000E-10   0.000    
  10    0.000      5.0000E-10  5.0000E-10  2.0000E-10  2.0000E-10  1.0000E-10  1.0000E-10  2.0000E-10  5.0000E-10  8.0000E-10
  11    0.000      1.0000E-10  1.0000E-10  1.0000E-10  1.0000E-10  1.0000E-10  1.0000E-10  2.0000E-10  5.0000E-10   0.000    
  12   1.0000E-10  1.0000E-10  1.0000E-10  1.0000E-10  1.0000E-10  1.0000E-10  1.0000E-10  1.0000E-10  2.0000E-10   0.000    
  13   1.0000E-10  1.0000E-10  2.0000E-10  2.0000E-10  2.0000E-10  2.0000E-10  2.0000E-10  1.0000E-10  1.0000E-10   0.000    
  14    0.000      2.0000E-10  5.0000E-10  5.0000E-10  5.0000E-10  5.0000E-10  5.0000E-10  2.0000E-10  1.0000E-10   0.000    
  15    0.000       0.000      8.0000E-10  8.0000E-10  8.0000E-10  8.0000E-10   0.000       0.000       0.000       0.000    

                  ET RATE =  1.000000E-09

 USING ET EXTINCTION DEPTH FROM PREVIOUS STRESS PERIOD. CURRENT PERIOD IS:      16

 USING EXTINCTION WATER CONTENT FROM PREVIOUS STRESS PERIOD. CURRENT PERIOD IS:      16
 
 SOLVING FOR HEAD 
                                                   Max.-Head-Change                         Max.-Flux-Residual
  Residual-Control   Outer-Iter.   Inner-Iter.     Column Row Layer    Maximum-Head-Change  Column Row Layer    Maximum-Flux-Residual          L2-NORM 
          0                 1           2             2   13     1       0.3111426748E-01       2   13    1         0.1637312787E+01      0.2748652682E+01
          0                 2           2             2   13     1      -0.3080522842E-02       2   13    1        -0.1637336799E+00      0.4865824626E+00
          0                 3           2             8    2     1       0.1137185680E-02       8    2    1         0.2952851007E-01      0.1543916913E+00
          0                 4           2             8    2     1       0.5112049145E-03       8    2    1         0.1327411334E-01      0.6504550535E-01
          0                 5           2             8    2     1       0.2298043491E-03       8    2    1         0.5967179339E-02      0.2886439973E-01
          0                 6           1             8    2     1       0.1033049300E-03       8    2    1         0.2682453735E-02      0.1290734794E-01
          0                 7           1             8    2     1       0.4643906108E-04       8    2    1         0.1205854669E-02      0.5778654166E-02
          0                 8           1             8    2     1       0.2087590828E-04       8    2    1         0.5420723720E-03      0.2587717976E-02
          0                 9           1             8    2     1       0.9384408578E-05       8    2    1         0.2436795893E-03      0.1158897409E-02

    ------------------------------------------------
       NWT REQUIRED            9 OUTER ITERATIONS 
       AND A TOTAL OF         14 INNER ITERATIONS.
    ------------------------------------------------

 NO OUTPUT CONTROL FOR STRESS PERIOD   16   TIME STEP    1
 
 SOLVING FOR HEAD 
                                                   Max.-Head-Change                         Max.-Flux-Residual
  Residual-Control   Outer-Iter.   Inner-Iter.     Column Row Layer    Maximum-Head-Change  Column Row Layer    Maximum-Flux-Residual          L2-NORM 
          0                 1           2             2   13     1       0.3071311807E-01       2   13    1         0.1616272797E+01      0.2717582844E+01
          0                 2           2             2   13     1      -0.3282949260E-02       2   13    1        -0.1898182077E+00      0.4947723815E+00
          0                 3           2             8    2     1       0.1136789514E-02       8    2    1         0.2951823618E-01      0.1545754711E+00
          0                 4           2             8    2     1       0.5110265473E-03       8    2    1         0.1326948767E-01      0.6505783331E-01
          0                 5           2             8    2     1       0.2297240427E-03       8    2    1         0.5965096710E-02      0.2886910814E-01
          0                 6           1             8    2     1       0.1032687740E-03       8    2    1         0.2681516074E-02      0.1290926128E-01
          0                 7           1             8    2     1       0.4642278261E-04       8    2    1         0.1205432509E-02      0.5779413400E-02
          0                 8           1             8    2     1       0.2086857953E-04       8    2    1         0.5418823070E-03      0.2588015007E-02
          0                 9           1             8    2     1       0.9381108988E-05       8    2    1         0.2435940167E-03      0.1159012253E-02

    ------------------------------------------------
       NWT REQUIRED            9 OUTER ITERATIONS 
       AND A TOTAL OF         14 INNER ITERATIONS.
    ------------------------------------------------

 NO OUTPUT CONTROL FOR STRESS PERIOD   16   TIME STEP    2
 
 SOLVING FOR HEAD 
                                                   Max.-Head-Change                         Max.-Flux-Residual
  Residual-Control   Outer-Iter.   Inner-Iter.     Column Row Layer    Maximum-Head-Change  Column Row Layer    Maximum-Flux-Residual          L2-NORM 
          0                 1           2             2   13     1       0.2766467231E-01       2   13    1         0.1582566303E+01      0.2680490101E+01
          0                 2           2             2   13     1      -0.2708046739E-02       2   13    1        -0.1564949274E+00      0.4815710756E+00
          0                 3           2             8    2     1       0.1136402163E-02       8    2    1         0.2950819149E-01      0.1542570122E+00
          0                 4           2             8    2     1       0.5108521371E-03       8    2    1         0.1326496488E-01      0.6506360960E-01
          0                 5           2             8    2     1       0.2296455124E-03       8    2    1         0.5963060255E-02      0.2887391684E-01
          0                 6           1             8    2     1       0.1032334150E-03       8    2    1         0.2680599139E-02      0.1291123711E-01
          0                 7           1             8    2     1       0.4640686204E-04       8    2    1         0.1205019651E-02      0.5780197313E-02
          0                 8           1             8    2     1       0.2086141147E-04       8    2    1         0.5416964171E-03      0.2588322323E-02
          0                 9           1             8    2     1       0.9377881305E-05       8    2    1         0.2435103177E-03      0.1159130748E-02

    ------------------------------------------------
       NWT REQUIRED            9 OUTER ITERATIONS 
       AND A TOTAL OF         14 INNER ITERATIONS.
    ------------------------------------------------

 NO OUTPUT CONTROL FOR STRESS PERIOD   16   TIME STEP    3
 
 SOLVING FOR HEAD 
                                                   Max.-Head-Change                         Max.-Flux-Residual
  Residual-Control   Outer-Iter.   Inner-Iter.     Column Row Layer    Maximum-Head-Change  Column Row Layer    Maximum-Flux-Residual          L2-NORM 
          0                 1           2             2   13     1       0.2515712542E-01       2   13    1         0.1438569024E+01      0.2582378001E+01
          0                 2           2             8    2     1       0.2527069464E-02       2   13    1        -0.1422642381E+00      0.4761251122E+00
          0                 3           2             8    2     1       0.1136005716E-02       8    2    1         0.2949791035E-01      0.1541196004E+00
          0                 4           2             8    2     1       0.5106736434E-03       8    2    1         0.1326033593E-01      0.6506930208E-01
          0                 5           2             8    2     1       0.2295651492E-03       8    2    1         0.5960976151E-02      0.2887784415E-01
          0                 6           1             8    2     1       0.1031972334E-03       8    2    1         0.2679660811E-02      0.1291285480E-01
          0                 7           1             8    2     1       0.4639057206E-04       8    2    1         0.1204597190E-02      0.5780830549E-02
          0                 8           1             8    2     1       0.2085407734E-04       8    2    1         0.5415062149E-03      0.2588565102E-02
          0                 9           1             8    2     1       0.9374579589E-05       8    2    1         0.2434246859E-03      0.1159222263E-02

    ------------------------------------------------
       NWT REQUIRED            9 OUTER ITERATIONS 
       AND A TOTAL OF         14 INNER ITERATIONS.
    ------------------------------------------------

 NO OUTPUT CONTROL FOR STRESS PERIOD   16   TIME STEP    4
 
 SOLVING FOR HEAD 
                                                   Max.-Head-Change                         Max.-Flux-Residual
  Residual-Control   Outer-Iter.   Inner-Iter.     Column Row Layer    Maximum-Head-Change  Column Row Layer    Maximum-Flux-Residual          L2-NORM 
          0                 1           2             2   13     1       0.2288667078E-01       2   13    1         0.1308205131E+01      0.2496530981E+01
          0                 2           2             8    2     1       0.2526188718E-02       2   13    1        -0.1293815737E+00      0.4714967467E+00
          0                 3           2             8    2     1       0.1135609185E-02       8    2    1         0.2948762673E-01      0.1540096233E+00
          0                 4           2             8    2     1       0.5104951171E-03       8    2    1         0.1325570602E-01      0.6507501718E-01
          0                 5           2             8    2     1       0.2294847738E-03       8    2    1         0.5958891677E-02      0.2888127837E-01
          0                 6           1             8    2     1       0.1031610472E-03       8    2    1         0.2678722348E-02      0.1291422689E-01
          0                 7           1             8    2     1       0.4637428082E-04       8    2    1         0.1204174684E-02      0.5781355088E-02
          0                 8           1             8    2     1       0.2084674296E-04       8    2    1         0.5413159983E-03      0.2588760584E-02
          0                 9           1             8    2     1       0.9371277373E-05       8    2    1         0.2433390482E-03      0.1159292844E-02

    ------------------------------------------------
       NWT REQUIRED            9 OUTER ITERATIONS 
       AND A TOTAL OF         14 INNER ITERATIONS.
    ------------------------------------------------

 NO OUTPUT CONTROL FOR STRESS PERIOD   16   TIME STEP    5
 
 SOLVING FOR HEAD 
                                                   Max.-Head-Change                         Max.-Flux-Residual
  Residual-Control   Outer-Iter.   Inner-Iter.     Column Row Layer    Maximum-Head-Change  Column Row Layer    Maximum-Flux-Residual          L2-NORM 
          0                 1           2             2   13     1       0.2083040766E-01       2   13    1         0.1190157021E+01      0.2422966787E+01
          0                 2           2             8    2     1       0.2525307686E-02       2   13    1        -0.1177117302E+00      0.4676950171E+00
          0                 3           2             8    2     1       0.1135212509E-02       8    2    1         0.2947733970E-01      0.1539272777E+00
          0                 4           2             8    2     1       0.5103165202E-03       8    2    1         0.1325107441E-01      0.6508039115E-01
          0                 5           2             8    2     1       0.2294043637E-03       8    2    1         0.5956806364E-02      0.2888412369E-01
          0                 6           1             8    2     1       0.1031248438E-03       8    2    1         0.2677783473E-02      0.1291532641E-01
          0                 7           1             8    2     1       0.4635798159E-04       8    2    1         0.1203751981E-02      0.5781763040E-02
          0                 8           1             8    2     1       0.2083940457E-04       8    2    1         0.5411256863E-03      0.2588906788E-02
          0                 9           1             8    2     1       0.9367973656E-05       8    2    1         0.2432533667E-03      0.1159342648E-02

    ------------------------------------------------
       NWT REQUIRED            9 OUTER ITERATIONS 
       AND A TOTAL OF         14 INNER ITERATIONS.
    ------------------------------------------------

 NO OUTPUT CONTROL FOR STRESS PERIOD   16   TIME STEP    6
 
 SOLVING FOR HEAD 
                                                   Max.-Head-Change                         Max.-Flux-Residual
  Residual-Control   Outer-Iter.   Inner-Iter.     Column Row Layer    Maximum-Head-Change  Column Row Layer    Maximum-Flux-Residual          L2-NORM 
          0                 1           2             2   13     1       0.1896800547E-01       2   13    1         0.1083255025E+01      0.2359301897E+01
          0                 2           2             8    2     1       0.2524426393E-02       2   13    1        -0.1071449799E+00      0.4644630941E+00
          0                 3           2             8    2     1       0.1134815722E-02       8    2    1         0.2946704965E-01      0.1538572925E+00
          0                 4           2             8    2     1       0.5101378740E-03       8    2    1         0.1324644149E-01      0.6508468984E-01
          0                 5           2             8    2     1       0.2293239323E-03       8    2    1         0.5954720485E-02      0.2888638412E-01
          0                 6           1             8    2     1       0.1030886323E-03       8    2    1         0.2676844358E-02      0.1291617333E-01
          0                 7           1             8    2     1       0.4634167810E-04       8    2    1         0.1203329165E-02      0.5782062817E-02
          0                 8           1             8    2     1       0.2083206444E-04       8    2    1         0.5409353253E-03      0.2589006646E-02
          0                 9           1             8    2     1       0.9364669189E-05       8    2    1         0.2431676618E-03      0.1159384264E-02

    ------------------------------------------------
       NWT REQUIRED            9 OUTER ITERATIONS 
       AND A TOTAL OF         14 INNER ITERATIONS.
    ------------------------------------------------

 NO OUTPUT CONTROL FOR STRESS PERIOD   16   TIME STEP    7
 
 SOLVING FOR HEAD 
                                                   Max.-Head-Change                         Max.-Flux-Residual
  Residual-Control   Outer-Iter.   Inner-Iter.     Column Row Layer    Maximum-Head-Change  Column Row Layer    Maximum-Flux-Residual          L2-NORM 
          0                 1           2             2   13     1       0.1728076002E-01       2   13    1         0.9864246164E+00      0.2304171605E+01
          0                 2           2             8    2     1       0.2523544855E-02       2   13    1        -0.9757197581E-01      0.4616456171E+00
          0                 3           2             8    2     1       0.1134418828E-02       8    2    1         0.2945675677E-01      0.1537611257E+00
          0                 4           2             8    2     1       0.5099591826E-03       8    2    1         0.1324180734E-01      0.6506912338E-01
          0                 5           2             8    2     1       0.2292434816E-03       8    2    1         0.5952634083E-02      0.2887826864E-01
          0                 6           1             8    2     1       0.1030524121E-03       8    2    1         0.2675905019E-02      0.1291174550E-01
          0                 7           1             8    2     1       0.4632537111E-04       8    2    1         0.1202906257E-02      0.5779724694E-02
          0                 8           1             8    2     1       0.2082472293E-04       8    2    1         0.5407449274E-03      0.2587804281E-02
          0                 9           1             8    2     1       0.9361363972E-05       8    2    1         0.2430819436E-03      0.1158766564E-02

    ------------------------------------------------
       NWT REQUIRED            9 OUTER ITERATIONS 
       AND A TOTAL OF         14 INNER ITERATIONS.
    ------------------------------------------------

 NO OUTPUT CONTROL FOR STRESS PERIOD   16   TIME STEP    8
 
 SOLVING FOR HEAD 
                                                   Max.-Head-Change                         Max.-Flux-Residual
  Residual-Control   Outer-Iter.   Inner-Iter.     Column Row Layer    Maximum-Head-Change  Column Row Layer    Maximum-Flux-Residual          L2-NORM 
          0                 1           2             2   13     1       0.1575194110E-01       2   13    1         0.8987070499E+00      0.2256332883E+01
          0                 2           2             8    2     1       0.2522663049E-02       2   13    1        -0.8889943087E-01      0.4591679608E+00
          0                 3           2             8    2     1       0.1134021809E-02       8    2    1         0.2944646071E-01      0.1536395945E+00
          0                 4           2             8    2     1       0.5097804318E-03       8    2    1         0.1323717170E-01      0.6503987019E-01
          0                 5           2             8    2     1       0.2291630033E-03       8    2    1         0.5950546978E-02      0.2886554671E-01
          0                 6           1             8    2     1       0.1030161785E-03       8    2    1         0.2674965346E-02      0.1290600958E-01
          0                 7           1             8    2     1       0.4630905799E-04       8    2    1         0.1202483197E-02      0.5777137274E-02
          0                 8           1             8    2     1       0.2081737867E-04       8    2    1         0.5405544609E-03      0.2586635321E-02
          0                 9           1             8    2     1       0.9358057504E-05       8    2    1         0.2429961935E-03      0.1158239769E-02

    ------------------------------------------------
       NWT REQUIRED            9 OUTER ITERATIONS 
       AND A TOTAL OF         14 INNER ITERATIONS.
    ------------------------------------------------

 NO OUTPUT CONTROL FOR STRESS PERIOD   16   TIME STEP    9
 
 SOLVING FOR HEAD 
                                                   Max.-Head-Change                         Max.-Flux-Residual
  Residual-Control   Outer-Iter.   Inner-Iter.     Column Row Layer    Maximum-Head-Change  Column Row Layer    Maximum-Flux-Residual          L2-NORM 
          0                 1           2             2   13     1       0.1436638648E-01       2   13    1         0.8192174177E+00      0.2215304106E+01
          0                 2           2             8    2     1       0.2521781036E-02       2   13    1        -0.8103823834E-01      0.4571689431E+00
          0                 3           2             8    2     1       0.1133624711E-02       8    2    1         0.2943616232E-01      0.1535927193E+00
          0                 4           2             8    2     1       0.5096016528E-03       8    2    1         0.1323253520E-01      0.6504057158E-01
          0                 5           2             8    2     1       0.2290825152E-03       8    2    1         0.5948459561E-02      0.2886599294E-01
          0                 6           1             8    2     1       0.1029799421E-03       8    2    1         0.2674025572E-02      0.1290606478E-01
          0                 7           1             8    2     1       0.4629274462E-04       8    2    1         0.1202060109E-02      0.5777091699E-02
          0                 8           1             8    2     1       0.2081003416E-04       8    2    1         0.5403639839E-03      0.2586586834E-02
          0                 9           1             8    2     1       0.9354751036E-05       8    2    1         0.2429104431E-03      0.1158205824E-02

    ------------------------------------------------
       NWT REQUIRED            9 OUTER ITERATIONS 
       AND A TOTAL OF         14 INNER ITERATIONS.
    ------------------------------------------------

 NO OUTPUT CONTROL FOR STRESS PERIOD   16   TIME STEP   10
 
 SOLVING FOR HEAD 
                                                   Max.-Head-Change                         Max.-Flux-Residual
  Residual-Control   Outer-Iter.   Inner-Iter.     Column Row Layer    Maximum-Head-Change  Column Row Layer    Maximum-Flux-Residual          L2-NORM 
          0                 1           2             2   13     1       0.1311054689E-01       2   13    1         0.7471834334E+00      0.2179854486E+01
          0                 2           2             8    2     1       0.2520898829E-02       2   13    1        -0.7391434011E-01      0.4554511892E+00
          0                 3           2             8    2     1       0.1133227530E-02       8    2    1         0.2942586169E-01      0.1535486352E+00
          0                 4           2             8    2     1       0.5094228389E-03       8    2    1         0.1322789773E-01      0.6503970784E-01
          0                 5           2             8    2     1       0.2290020123E-03       8    2    1         0.5946371736E-02      0.2886573817E-01
          0                 6           1             8    2     1       0.1029436995E-03       8    2    1         0.2673085621E-02      0.1290582123E-01
          0                 7           1             8    2     1       0.4627642813E-04       8    2    1         0.1201636940E-02      0.5776922730E-02
          0                 8           1             8    2     1       0.2080268852E-04       8    2    1         0.5401734733E-03      0.2586482585E-02
          0                 9           1             8    2     1       0.9351444068E-05       8    2    1         0.2428246765E-03      0.1158146821E-02

    ------------------------------------------------
       NWT REQUIRED            9 OUTER ITERATIONS 
       AND A TOTAL OF         14 INNER ITERATIONS.
    ------------------------------------------------

 NO OUTPUT CONTROL FOR STRESS PERIOD   16   TIME STEP   11
 
 SOLVING FOR HEAD 
                                                   Max.-Head-Change                         Max.-Flux-Residual
  Residual-Control   Outer-Iter.   Inner-Iter.     Column Row Layer    Maximum-Head-Change  Column Row Layer    Maximum-Flux-Residual          L2-NORM 
          0                 1           2             2   13     1       0.1197202501E-01       2   13    1         0.6818957777E+00      0.2148825539E+01
          0                 2           2             8    2     1       0.2520016368E-02       2   13    1        -0.6745898823E-01      0.4538628734E+00
          0                 3           2             8    2     1       0.1132830221E-02       8    2    1         0.2941555802E-01      0.1534630862E+00
          0                 4           2             8    2     1       0.5092439608E-03       8    2    1         0.1322325874E-01      0.6501439939E-01
          0                 5           2             8    2     1       0.2289214775E-03       8    2    1         0.5944283151E-02      0.2885295867E-01
          0                 6           1             8    2     1       0.1029074421E-03       8    2    1         0.2672145302E-02      0.1289938872E-01
          0                 7           1             8    2     1       0.4626010426E-04       8    2    1         0.1201213588E-02      0.5773769557E-02
          0                 8           1             8    2     1       0.2079533951E-04       8    2    1         0.5399828763E-03      0.2584971848E-02
          0                 9           1             8    2     1       0.9348135474E-05       8    2    1         0.2427388656E-03      0.1157433413E-02

    ------------------------------------------------
       NWT REQUIRED            9 OUTER ITERATIONS 
       AND A TOTAL OF         14 INNER ITERATIONS.
    ------------------------------------------------

 NO OUTPUT CONTROL FOR STRESS PERIOD   16   TIME STEP   12
 
 SOLVING FOR HEAD 
                                                   Max.-Head-Change                         Max.-Flux-Residual
  Residual-Control   Outer-Iter.   Inner-Iter.     Column Row Layer    Maximum-Head-Change  Column Row Layer    Maximum-Flux-Residual          L2-NORM 
          0                 1           2             2   13     1       0.1093891429E-01       2   13    1         0.6226976168E+00      0.2121939264E+01
          0                 2           2             8    2     1       0.2519113794E-02       8    2    1         0.6541236903E-01      0.4523707826E+00
          0                 3           2             8    2     1       0.1132423903E-02       8    2    1         0.2940501973E-01      0.1533187831E+00
          0                 4           2             8    2     1       0.5090610466E-03       8    2    1         0.1321851464E-01      0.6496599826E-01
          0                 5           2             8    2     1       0.2288391346E-03       8    2    1         0.5942147478E-02      0.2883301206E-01
          0                 6           1             8    2     1       0.1028703739E-03       8    2    1         0.2671183886E-02      0.1289105827E-01
          0                 7           1             8    2     1       0.4624341772E-04       8    2    1         0.1200780793E-02      0.5770276304E-02
          0                 8           1             8    2     1       0.2078782767E-04       8    2    1         0.5397880458E-03      0.2583501219E-02
          0                 9           1             8    2     1       0.9344754223E-05       8    2    1         0.2426511627E-03      0.1156811969E-02

    ------------------------------------------------
       NWT REQUIRED            9 OUTER ITERATIONS 
       AND A TOTAL OF         14 INNER ITERATIONS.
    ------------------------------------------------

 NO OUTPUT CONTROL FOR STRESS PERIOD   16   TIME STEP   13
 
 SOLVING FOR HEAD 
                                                   Max.-Head-Change                         Max.-Flux-Residual
  Residual-Control   Outer-Iter.   Inner-Iter.     Column Row Layer    Maximum-Head-Change  Column Row Layer    Maximum-Flux-Residual          L2-NORM 
          0                 1           2             2   13     1       0.1000136522E-01       2   13    1         0.5689530175E+00      0.2098485532E+01
          0                 2           2             8    2     1       0.2518231025E-02       8    2    1         0.6538947530E-01      0.4511708000E+00
          0                 3           2             8    2     1       0.1132026465E-02       8    2    1         0.2939471252E-01      0.1532735751E+00
          0                 4           2             8    2     1       0.5088821154E-03       8    2    1         0.1321387417E-01      0.6496152047E-01
          0                 5           2             8    2     1       0.2287585785E-03       8    2    1         0.5940058288E-02      0.2883132212E-01
          0                 6           1             8    2     1       0.1028341070E-03       8    2    1         0.2670243318E-02      0.1289019670E-01
          0                 7           1             8    2     1       0.4622709035E-04       8    2    1         0.1200357348E-02      0.5769834502E-02
          0                 8           1             8    2     1       0.2078047766E-04       8    2    1         0.5395974142E-03      0.2583276432E-02
          0                 9           1             8    2     1       0.9341444753E-05       8    2    1         0.2425653363E-03      0.1156700321E-02

    ------------------------------------------------
       NWT REQUIRED            9 OUTER ITERATIONS 
       AND A TOTAL OF         14 INNER ITERATIONS.
    ------------------------------------------------

 NO OUTPUT CONTROL FOR STRESS PERIOD   16   TIME STEP   14
 
 SOLVING FOR HEAD 
                                                   Max.-Head-Change                         Max.-Flux-Residual
  Residual-Control   Outer-Iter.   Inner-Iter.     Column Row Layer    Maximum-Head-Change  Column Row Layer    Maximum-Flux-Residual          L2-NORM 
          0                 1           2             1   13     1       0.9374610628E-02       2   13    1         0.5202115174E+00      0.2078188570E+01
          0                 2           2             8    2     1       0.2517348103E-02       8    2    1         0.6536657690E-01      0.4501464560E+00
          0                 3           2             8    2     1       0.1131628973E-02       8    2    1         0.2938440357E-01      0.1532333751E+00
          0                 4           2             8    2     1       0.5087031657E-03       8    2    1         0.1320923308E-01      0.6495637020E-01
          0                 5           2             8    2     1       0.2286780168E-03       8    2    1         0.5937968890E-02      0.2882919264E-01
          0                 6           1             8    2     1       0.1027978389E-03       8    2    1         0.2669302684E-02      0.1288913365E-01
          0                 7           1             8    2     1       0.4621076285E-04       8    2    1         0.1199933884E-02      0.5769300535E-02
          0                 8           1             8    2     1       0.2077312715E-04       8    2    1         0.5394067770E-03      0.2583014556E-02
          0                 9           1             8    2     1       0.9338135909E-05       8    2    1         0.2424795183E-03      0.1156573114E-02

    ------------------------------------------------
       NWT REQUIRED            9 OUTER ITERATIONS 
       AND A TOTAL OF         14 INNER ITERATIONS.
    ------------------------------------------------

 NO OUTPUT CONTROL FOR STRESS PERIOD   16   TIME STEP   15
 
 SOLVING FOR HEAD 
                                                   Max.-Head-Change                         Max.-Flux-Residual
  Residual-Control   Outer-Iter.   Inner-Iter.     Column Row Layer    Maximum-Head-Change  Column Row Layer    Maximum-Flux-Residual          L2-NORM 
          0                 1           2             1   13     1       0.8898455797E-02       1   13    1         0.4874582544E+00      0.2060728870E+01
          0                 2           2             8    2     1       0.2516445074E-02       8    2    1         0.6534315576E-01      0.4492949284E+00
          0                 3           2             8    2     1       0.1131222456E-02       8    2    1         0.2937386000E-01      0.1532006084E+00
          0                 4           2             8    2     1       0.5085201653E-03       8    2    1         0.1320448668E-01      0.6495116031E-01
          0                 5           2             8    2     1       0.2285956367E-03       8    2    1         0.5935832223E-02      0.2882685783E-01
          0                 6           1             8    2     1       0.1027607549E-03       8    2    1         0.2668340840E-02      0.1288797530E-01
          0                 7           1             8    2     1       0.4619406944E-04       8    2    1         0.1199500903E-02      0.5768729322E-02
          0                 8           1             8    2     1       0.2076561244E-04       8    2    1         0.5392118684E-03      0.2582735776E-02
          0                 9           1             8    2     1       0.9334753532E-05       8    2    1         0.2423917814E-03      0.1156447019E-02

    ------------------------------------------------
       NWT REQUIRED            9 OUTER ITERATIONS 
       AND A TOTAL OF         14 INNER ITERATIONS.
    ------------------------------------------------

 NO OUTPUT CONTROL FOR STRESS PERIOD   16   TIME STEP   16
 
 SOLVING FOR HEAD 
                                                   Max.-Head-Change                         Max.-Flux-Residual
  Residual-Control   Outer-Iter.   Inner-Iter.     Column Row Layer    Maximum-Head-Change  Column Row Layer    Maximum-Flux-Residual          L2-NORM 
          0                 1           2             1   13     1       0.8444545195E-02       1   13    1         0.4626856891E+00      0.2045751868E+01
          0                 2           2             8    2     1       0.2515561879E-02       8    2    1         0.6532025071E-01      0.4485230875E+00
          0                 3           2             8    2     1       0.1130824834E-02       8    2    1         0.2936354784E-01      0.1531550371E+00
          0                 4           2             8    2     1       0.5083411533E-03       8    2    1         0.1319984406E-01      0.6493941221E-01
          0                 5           2             8    2     1       0.2285150457E-03       8    2    1         0.5933742098E-02      0.2882146747E-01
          0                 6           1             8    2     1       0.1027244731E-03       8    2    1         0.2667399864E-02      0.1288536441E-01
          0                 7           1             8    2     1       0.4617773556E-04       8    2    1         0.1199077279E-02      0.5767467976E-02
          0                 8           1             8    2     1       0.2075825905E-04       8    2    1         0.5390211565E-03      0.2582130861E-02
          0                 9           1             8    2     1       0.9331443063E-05       8    2    1         0.2423059263E-03      0.1156150120E-02

    ------------------------------------------------
       NWT REQUIRED            9 OUTER ITERATIONS 
       AND A TOTAL OF         14 INNER ITERATIONS.
    ------------------------------------------------

 NO OUTPUT CONTROL FOR STRESS PERIOD   16   TIME STEP   17
 
 SOLVING FOR HEAD 
                                                   Max.-Head-Change                         Max.-Flux-Residual
  Residual-Control   Outer-Iter.   Inner-Iter.     Column Row Layer    Maximum-Head-Change  Column Row Layer    Maximum-Flux-Residual          L2-NORM 
          0                 1           2             1   13     1       0.8012084204E-02       1   13    1         0.4390723986E+00      0.2031750491E+01
          0                 2           2             8    2     1       0.2514658620E-02       8    2    1         0.6529682309E-01      0.4477387060E+00
          0                 3           2             8    2     1       0.1130418225E-02       8    2    1         0.2935300164E-01      0.1531028512E+00
          0                 4           2             8    2     1       0.5081581167E-03       8    2    1         0.1319509661E-01      0.6492659626E-01
          0                 5           2             8    2     1       0.2284326516E-03       8    2    1         0.5931605016E-02      0.2881601107E-01
          0                 6           1             8    2     1       0.1026873837E-03       8    2    1         0.2666437858E-02      0.1288286858E-01
          0                 7           1             8    2     1       0.4616104015E-04       8    2    1         0.1198644236E-02      0.5766320442E-02
          0                 8           1             8    2     1       0.2075074396E-04       8    2    1         0.5388262253E-03      0.2581606359E-02
          0                 9           1             8    2     1       0.9328060061E-05       8    2    1         0.2422181784E-03      0.1155918756E-02

    ------------------------------------------------
       NWT REQUIRED            9 OUTER ITERATIONS 
       AND A TOTAL OF         14 INNER ITERATIONS.
    ------------------------------------------------

 NO OUTPUT CONTROL FOR STRESS PERIOD   16   TIME STEP   18
 
 SOLVING FOR HEAD 
                                                   Max.-Head-Change                         Max.-Flux-Residual
  Residual-Control   Outer-Iter.   Inner-Iter.     Column Row Layer    Maximum-Head-Change  Column Row Layer    Maximum-Flux-Residual          L2-NORM 
          0                 1           2             1   13     1       0.7600300805E-02       1   13    1         0.4165780615E+00      0.2019752580E+01
          0                 2           2             8    2     1       0.2513775242E-02       8    2    1         0.6527391274E-01      0.4470848127E+00
          0                 3           2             8    2     1       0.1130020530E-02       8    2    1         0.2934268738E-01      0.1530651058E+00
          0                 4           2             8    2     1       0.5079790774E-03       8    2    1         0.1319045317E-01      0.6491837587E-01
          0                 5           2             8    2     1       0.2283520499E-03       8    2    1         0.5929514569E-02      0.2881248512E-01
          0                 6           1             8    2     1       0.1026510983E-03       8    2    1         0.2665496765E-02      0.1288121436E-01
          0                 7           1             8    2     1       0.4614470502E-04       8    2    1         0.1198220569E-02      0.5765537866E-02
          0                 8           1             8    2     1       0.2074339032E-04       8    2    1         0.5386354981E-03      0.2581234916E-02
          0                 9           1             8    2     1       0.9324749716E-05       8    2    1         0.2421323157E-03      0.1155735283E-02

    ------------------------------------------------
       NWT REQUIRED            9 OUTER ITERATIONS 
       AND A TOTAL OF         14 INNER ITERATIONS.
    ------------------------------------------------

 NO OUTPUT CONTROL FOR STRESS PERIOD   16   TIME STEP   19
 
 SOLVING FOR HEAD 
                                                   Max.-Head-Change                         Max.-Flux-Residual
  Residual-Control   Outer-Iter.   Inner-Iter.     Column Row Layer    Maximum-Head-Change  Column Row Layer    Maximum-Flux-Residual          L2-NORM 
          0                 1           2             1   13     1       0.7208374389E-02       1   13    1         0.3951593825E+00      0.2009809198E+01
          0                 2           2             8    2     1       0.2512871791E-02       8    2    1         0.6525048010E-01      0.4465904961E+00
          0                 3           2             8    2     1       0.1129613835E-02       8    2    1         0.2933213894E-01      0.1530356302E+00
          0                 4           2             8    2     1       0.5077960029E-03       8    2    1         0.1318570473E-01      0.6491005579E-01
          0                 5           2             8    2     1       0.2282696391E-03       8    2    1         0.5927377050E-02      0.2880870933E-01
          0                 6           1             8    2     1       0.1026140013E-03       8    2    1         0.2664534565E-02      0.1287944113E-01
          0                 7           1             8    2     1       0.4612800648E-04       8    2    1         0.1197787443E-02      0.5764705515E-02
          0                 8           1             8    2     1       0.2073587336E-04       8    2    1         0.5384405294E-03      0.2580845365E-02
          0                 9           1             8    2     1       0.9321366214E-05       8    2    1         0.2420445572E-03      0.1155553508E-02

    ------------------------------------------------
       NWT REQUIRED            9 OUTER ITERATIONS 
       AND A TOTAL OF         14 INNER ITERATIONS.
    ------------------------------------------------

 NO OUTPUT CONTROL FOR STRESS PERIOD   16   TIME STEP   20
 
 SOLVING FOR HEAD 
                                                   Max.-Head-Change                         Max.-Flux-Residual
  Residual-Control   Outer-Iter.   Inner-Iter.     Column Row Layer    Maximum-Head-Change  Column Row Layer    Maximum-Flux-Residual          L2-NORM 
          0                 1           2             1   13     1       0.6835517752E-02       1   13    1         0.3747748241E+00      0.2001091481E+01
          0                 2           2             8    2     1       0.2511968326E-02       8    2    1         0.6522704681E-01      0.4461240434E+00
          0                 3           2             8    2     1       0.1129207140E-02       8    2    1         0.2932159036E-01      0.1529890776E+00
          0                 4           2             8    2     1       0.5076129301E-03       8    2    1         0.1318095628E-01      0.6489259704E-01
          0                 5           2             8    2     1       0.2281872306E-03       8    2    1         0.5925239564E-02      0.2880061045E-01
          0                 6           1             8    2     1       0.1025769063E-03       8    2    1         0.2663572395E-02      0.1287565773E-01
          0                 7           1             8    2     1       0.4611130857E-04       8    2    1         0.1197354333E-02      0.5762945596E-02
          0                 8           1             8    2     1       0.2072835715E-04       8    2    1         0.5382455725E-03      0.2580032574E-02
          0                 9           1             8    2     1       0.9317983087E-05       8    2    1         0.2419568010E-03      0.1155174578E-02

    ------------------------------------------------
       NWT REQUIRED            9 OUTER ITERATIONS 
       AND A TOTAL OF         14 INNER ITERATIONS.
    ------------------------------------------------

 NO OUTPUT CONTROL FOR STRESS PERIOD   16   TIME STEP   21
 
 SOLVING FOR HEAD 
                                                   Max.-Head-Change                         Max.-Flux-Residual
  Residual-Control   Outer-Iter.   Inner-Iter.     Column Row Layer    Maximum-Head-Change  Column Row Layer    Maximum-Flux-Residual          L2-NORM 
          0                 1           2             1   13     1       0.6480980514E-02       1   13    1         0.3553846008E+00      0.1993190409E+01
          0                 2           2             8    2     1       0.2511064788E-02       8    2    1         0.6520361230E-01      0.4456702541E+00
          0                 3           2             8    2     1       0.1128800399E-02       8    2    1         0.2931104088E-01      0.1529513799E+00
          0                 4           2             8    2     1       0.5074298317E-03       8    2    1         0.1317620728E-01      0.6488200606E-01
          0                 5           2             8    2     1       0.2281048073E-03       8    2    1         0.5923101749E-02      0.2879600790E-01
          0                 6           1             8    2     1       0.1025398032E-03       8    2    1         0.2662610045E-02      0.1287354091E-01
          0                 7           1             8    2     1       0.4609460665E-04       8    2    1         0.1196921129E-02      0.5761964210E-02
          0                 8           1             8    2     1       0.2072083906E-04       8    2    1         0.5380505689E-03      0.2579574765E-02
          0                 9           1             8    2     1       0.9314598709E-05       8    2    1         0.2418690203E-03      0.1154966150E-02

    ------------------------------------------------
       NWT REQUIRED            9 OUTER ITERATIONS 
       AND A TOTAL OF         14 INNER ITERATIONS.
    ------------------------------------------------

 NO OUTPUT CONTROL FOR STRESS PERIOD   16   TIME STEP   22
 
 SOLVING FOR HEAD 
                                                   Max.-Head-Change                         Max.-Flux-Residual
  Residual-Control   Outer-Iter.   Inner-Iter.     Column Row Layer    Maximum-Head-Change  Column Row Layer    Maximum-Flux-Residual          L2-NORM 
          0                 1           2             5    4     1       0.6237155983E-02       1   13    1         0.3369494696E+00      0.1986114643E+01
          0                 2           2             8    2     1       0.2510161287E-02       8    2    1         0.6518017754E-01      0.4452729058E+00
          0                 3           2             8    2     1       0.1128393699E-02       8    2    1         0.2930049193E-01      0.1529202572E+00
          0                 4           2             8    2     1       0.5072467618E-03       8    2    1         0.1317145881E-01      0.6487228870E-01
          0                 5           2             8    2     1       0.2280224026E-03       8    2    1         0.5920964307E-02      0.2879164532E-01
          0                 6           1             8    2     1       0.1025027103E-03       8    2    1         0.2661647916E-02      0.1287151951E-01
          0                 7           1             8    2     1       0.4607791062E-04       8    2    1         0.1196488056E-02      0.5761026668E-02
          0                 8           1             8    2     1       0.2071332385E-04       8    2    1         0.5378556334E-03      0.2579145123E-02
          0                 9           1             8    2     1       0.9311216082E-05       8    2    1         0.2417812781E-03      0.1154765827E-02

    ------------------------------------------------
       NWT REQUIRED            9 OUTER ITERATIONS 
       AND A TOTAL OF         14 INNER ITERATIONS.
    ------------------------------------------------

 NO OUTPUT CONTROL FOR STRESS PERIOD   16   TIME STEP   23
 
 SOLVING FOR HEAD 
                                                   Max.-Head-Change                         Max.-Flux-Residual
  Residual-Control   Outer-Iter.   Inner-Iter.     Column Row Layer    Maximum-Head-Change  Column Row Layer    Maximum-Flux-Residual          L2-NORM 
          0                 1           2             5    4     1       0.6207886662E-02       5    4    1         0.3242196951E+00      0.1980169532E+01
          0                 2           2             8    2     1       0.2509277711E-02       8    2    1         0.6515726162E-01      0.4449151881E+00
          0                 3           2             8    2     1       0.1127995925E-02       8    2    1         0.2929017541E-01      0.1528660731E+00
          0                 4           2             8    2     1       0.5070676918E-03       8    2    1         0.1316681447E-01      0.6485013429E-01
          0                 5           2             8    2     1       0.2279417891E-03       8    2    1         0.5918873511E-02      0.2878149976E-01
          0                 6           1             8    2     1       0.1024664208E-03       8    2    1         0.2660706693E-02      0.1286685976E-01
          0                 7           1             8    2     1       0.4606157386E-04       8    2    1         0.1196064339E-02      0.5758891851E-02
          0                 8           1             8    2     1       0.2070596971E-04       8    2    1         0.5376648912E-03      0.2578164563E-02
          0                 9           1             8    2     1       0.9307905488E-05       8    2    1         0.2416954118E-03      0.1154320244E-02

    ------------------------------------------------
       NWT REQUIRED            9 OUTER ITERATIONS 
       AND A TOTAL OF         14 INNER ITERATIONS.
    ------------------------------------------------

 NO OUTPUT CONTROL FOR STRESS PERIOD   16   TIME STEP   24
 
 SOLVING FOR HEAD 
                                                   Max.-Head-Change                         Max.-Flux-Residual
  Residual-Control   Outer-Iter.   Inner-Iter.     Column Row Layer    Maximum-Head-Change  Column Row Layer    Maximum-Flux-Residual          L2-NORM 
          0                 1           2             5    4     1       0.6180181945E-02       5    4    1         0.3227166329E+00      0.1974657588E+01
          0                 2           2             8    2     1       0.2508374161E-02       8    2    1         0.6513382502E-01      0.4445566868E+00
          0                 3           2             8    2     1       0.1127589216E-02       8    2    1         0.2927962595E-01      0.1528210236E+00
          0                 4           2             8    2     1       0.5068846233E-03       8    2    1         0.1316206590E-01      0.6483425824E-01
          0                 5           2             8    2     1       0.2278593870E-03       8    2    1         0.5916736090E-02      0.2877452005E-01
          0                 6           1             8    2     1       0.1024293304E-03       8    2    1         0.2659744607E-02      0.1286370938E-01
          0                 7           1             8    2     1       0.4604487933E-04       8    2    1         0.1195631296E-02      0.5757465546E-02
          0                 8           1             8    2     1       0.2069845574E-04       8    2    1         0.5374699748E-03      0.2577519301E-02
          0                 9           1             8    2     1       0.9304523236E-05       8    2    1         0.2416076758E-03      0.1154027738E-02

    ------------------------------------------------
       NWT REQUIRED            9 OUTER ITERATIONS 
       AND A TOTAL OF         14 INNER ITERATIONS.
    ------------------------------------------------

 NO OUTPUT CONTROL FOR STRESS PERIOD   16   TIME STEP   25
 
 SOLVING FOR HEAD 
                                                   Max.-Head-Change                         Max.-Flux-Residual
  Residual-Control   Outer-Iter.   Inner-Iter.     Column Row Layer    Maximum-Head-Change  Column Row Layer    Maximum-Flux-Residual          L2-NORM 
          0                 1           2             5    4     1       0.6153932142E-02       5    4    1         0.3212932624E+00      0.1969635071E+01
          0                 2           2             8    2     1       0.2507470624E-02       8    2    1         0.6511038941E-01      0.4442291043E+00
          0                 3           2             8    2     1       0.1127182499E-02       8    2    1         0.2926907658E-01      0.1527839248E+00
          0                 4           2             8    2     1       0.5067015460E-03       8    2    1         0.1315731723E-01      0.6482293434E-01
          0                 5           2             8    2     1       0.2277769785E-03       8    2    1         0.5914598552E-02      0.2876966107E-01
          0                 6           1             8    2     1       0.1023922361E-03       8    2    1         0.2658782435E-02      0.1286149523E-01
          0                 7           1             8    2     1       0.4602818241E-04       8    2    1         0.1195198199E-02      0.5756447219E-02
          0                 8           1             8    2     1       0.2069094003E-04       8    2    1         0.5372750294E-03      0.2577050640E-02
          0                 9           1             8    2     1       0.9301140609E-05       8    2    1         0.2415199299E-03      0.1153812503E-02

    ------------------------------------------------
       NWT REQUIRED            9 OUTER ITERATIONS 
       AND A TOTAL OF         14 INNER ITERATIONS.
    ------------------------------------------------

 NO OUTPUT CONTROL FOR STRESS PERIOD   16   TIME STEP   26
 
 SOLVING FOR HEAD 
                                                   Max.-Head-Change                         Max.-Flux-Residual
  Residual-Control   Outer-Iter.   Inner-Iter.     Column Row Layer    Maximum-Head-Change  Column Row Layer    Maximum-Flux-Residual          L2-NORM 
          0                 1           2             5    4     1       0.6129267039E-02       5    4    1         0.3199567589E+00      0.1964904216E+01
          0                 2           2             8    2     1       0.2506547167E-02       8    2    1         0.6508643541E-01      0.4438848039E+00
          0                 3           2             8    2     1       0.1126766850E-02       8    2    1         0.2925829480E-01      0.1527389525E+00
          0                 4           2             8    2     1       0.5065144642E-03       8    2    1         0.1315246435E-01      0.6480737763E-01
          0                 5           2             8    2     1       0.2276927743E-03       8    2    1         0.5912414294E-02      0.2876275881E-01
          0                 6           1             8    2     1       0.1023543370E-03       8    2    1         0.2657799322E-02      0.1285833971E-01
          0                 7           1             8    2     1       0.4601112459E-04       8    2    1         0.1194755710E-02      0.5755003824E-02
          0                 8           1             8    2     1       0.2068326237E-04       8    2    1         0.5370758714E-03      0.2576392058E-02
          0                 9           1             8    2     1       0.9297685075E-05       8    2    1         0.2414302955E-03      0.1153513255E-02

    ------------------------------------------------
       NWT REQUIRED            9 OUTER ITERATIONS 
       AND A TOTAL OF         14 INNER ITERATIONS.
    ------------------------------------------------

 NO OUTPUT CONTROL FOR STRESS PERIOD   16   TIME STEP   27
 
 SOLVING FOR HEAD 
                                                   Max.-Head-Change                         Max.-Flux-Residual
  Residual-Control   Outer-Iter.   Inner-Iter.     Column Row Layer    Maximum-Head-Change  Column Row Layer    Maximum-Flux-Residual          L2-NORM 
          0                 1           2             5    4     1       0.6105727807E-02       5    4    1         0.3186819916E+00      0.1961236528E+01
          0                 2           2             8    2     1       0.2505643837E-02       8    2    1         0.6506300457E-01      0.4436537266E+00
          0                 3           2             8    2     1       0.1126360238E-02       8    2    1         0.2924774789E-01      0.1527022040E+00
          0                 4           2             8    2     1       0.5063314393E-03       8    2    1         0.1314771693E-01      0.6479278834E-01
          0                 5           2             8    2     1       0.2276103917E-03       8    2    1         0.5910277379E-02      0.2875630681E-01
          0                 6           1             8    2     1       0.1023172554E-03       8    2    1         0.2656837461E-02      0.1285545906E-01
          0                 7           1             8    2     1       0.4599443405E-04       8    2    1         0.1194322767E-02      0.5753904960E-02
          0                 8           1             8    2     1       0.2067575004E-04       8    2    1         0.5368809995E-03      0.2576206967E-02
          0                 9           1             8    2     1       0.9294303574E-05       8    2    1         0.2413425794E-03      0.1153253138E-02

    ------------------------------------------------
       NWT REQUIRED            9 OUTER ITERATIONS 
       AND A TOTAL OF         14 INNER ITERATIONS.
    ------------------------------------------------

 NO OUTPUT CONTROL FOR STRESS PERIOD   16   TIME STEP   28
 
 SOLVING FOR HEAD 
                                                   Max.-Head-Change                         Max.-Flux-Residual
  Residual-Control   Outer-Iter.   Inner-Iter.     Column Row Layer    Maximum-Head-Change  Column Row Layer    Maximum-Flux-Residual          L2-NORM 
          0                 1           2             5    4     1       0.6083467612E-02       5    4    1         0.3174772956E+00      0.1957686947E+01
          0                 2           2             8    2     1       0.2504740668E-02       8    2    1         0.6503957677E-01      0.4433897086E+00
          0                 3           2             8    2     1       0.1125953723E-02       8    2    1         0.2923720299E-01      0.1526668288E+00
          0                 4           2             8    2     1       0.5061484688E-03       8    2    1         0.1314297069E-01      0.6478075016E-01
          0                 5           2             8    2     1       0.2275280385E-03       8    2    1         0.5908141125E-02      0.2875102958E-01
          0                 6           1             8    2     1       0.1022801892E-03       8    2    1         0.2655875953E-02      0.1285305381E-01
          0                 7           1             8    2     1       0.4597775115E-04       8    2    1         0.1193890005E-02      0.5752612263E-02
          0                 8           1             8    2     1       0.2066824146E-04       8    2    1         0.5366862222E-03      0.2575308704E-02
          0                 9           1             8    2     1       0.9290924073E-05       8    2    1         0.2412549158E-03      0.1153021712E-02

    ------------------------------------------------
       NWT REQUIRED            9 OUTER ITERATIONS 
       AND A TOTAL OF         14 INNER ITERATIONS.
    ------------------------------------------------

 NO OUTPUT CONTROL FOR STRESS PERIOD   16   TIME STEP   29
 
 SOLVING FOR HEAD 
                                                   Max.-Head-Change                         Max.-Flux-Residual
  Residual-Control   Outer-Iter.   Inner-Iter.     Column Row Layer    Maximum-Head-Change  Column Row Layer    Maximum-Flux-Residual          L2-NORM 
          0                 1           2             2   13     1      -0.1111686437E-01       2   13    1        -0.6379422686E+00      0.2000076272E+01
          0                 2           2             8    2     1       0.2503837478E-02       8    2    1         0.6501615043E-01      0.4408795901E+00
          0                 3           2             8    2     1       0.1125547156E-02       8    2    1         0.2922665763E-01      0.1521423204E+00
          0                 4           2             8    2     1       0.5059654562E-03       8    2    1         0.1313822375E-01      0.6471049019E-01
          0                 5           2             8    2     1       0.2274456578E-03       8    2    1         0.5906004338E-02      0.2873373620E-01
          0                 6           1             8    2     1       0.1022431074E-03       8    2    1         0.2654914111E-02      0.1284639288E-01
          0                 7           1             8    2     1       0.4596105936E-04       8    2    1         0.1193457049E-02      0.5749743262E-02
          0                 8           1             8    2     1       0.2066072812E-04       8    2    1         0.5364913374E-03      0.2574047620E-02
          0                 9           1             8    2     1       0.9287542447E-05       8    2    1         0.2411671949E-03      0.1152465069E-02

    ------------------------------------------------
       NWT REQUIRED            9 OUTER ITERATIONS 
       AND A TOTAL OF         14 INNER ITERATIONS.
    ------------------------------------------------

 NO OUTPUT CONTROL FOR STRESS PERIOD   16   TIME STEP   30



 STREAM LISTING     PERIOD     16   STEP       30

 LAYER ROW COL. STREAM  RCH.  FLOW INTO     FLOW TO   FLOW OUT OF   OVRLND.     DIRECT     STREAM       STREAM     STREAM     STREAM   STREAMBED  STREAMBED
                SEG.NO.  NO.  STRM. RCH.    AQUIFER    STRM. RCH.    RUNOFF     PRECIP       ET          HEAD       DEPTH      WIDTH   CONDCTNC.   GRADIENT

   1    1    1     1     1    6.3479E+01  3.8401E-09   6.3479E+01  0.000E+00  0.000E+00  0.000E+00  1.09461E+03  1.567E+00  1.868E+01  8.408E-10  1.522E+00
   1    2    2     1     2    6.3479E+01  5.9678E-09   6.3479E+01  0.000E+00  0.000E+00  0.000E+00  1.08962E+03  1.566E+00  1.867E+01  1.307E-09  1.522E+00
   1    3    3     1     3    6.3479E+01  5.1172E-09   6.3479E+01  0.000E+00  0.000E+00  0.000E+00  1.08399E+03  1.566E+00  1.868E+01  1.121E-09  1.522E+00
   1    3    4     1     4    6.3479E+01  4.7342E-09   6.3479E+01  0.000E+00  0.000E+00  0.000E+00  1.07897E+03  1.567E+00  1.868E+01  1.037E-09  1.522E+00
   1    4    5     2     1    6.1479E+01  3.9530E-01   6.1084E+01  0.000E+00  0.000E+00  0.000E+00  1.07400E+03  2.068E+00  1.200E+01  7.800E-02  1.689E+00
   1    5    6     2     2    6.1084E+01  3.0365E-01   6.0780E+01  0.000E+00  0.000E+00  0.000E+00  1.06857E+03  2.061E+00  1.200E+01  6.000E-02  1.687E+00
   1    6    6     2     3    6.0780E+01  3.0328E-01   6.0477E+01  0.000E+00  0.000E+00  0.000E+00  1.06385E+03  2.055E+00  1.200E+01  6.000E-02  1.685E+00
   1    7    6     2     4    6.0477E+01  3.0291E-01   6.0174E+01  0.000E+00  0.000E+00  0.000E+00  1.05912E+03  2.049E+00  1.200E+01  6.000E-02  1.683E+00
   1    8    6     2     5    6.0174E+01  3.0254E-01   5.9872E+01  0.000E+00  0.000E+00  0.000E+00  1.05440E+03  2.042E+00  1.200E+01  6.000E-02  1.681E+00
   1    3    5     3     1    2.0000E+00  2.8252E-01   1.7175E+00  0.000E+00  0.000E+00  0.000E+00  1.07555E+03  1.909E+00  9.636E+00  7.227E-02  1.955E+00
   1    3    6     3     2    1.7175E+00  2.4905E-01   1.4684E+00  0.000E+00  0.000E+00  0.000E+00  1.07264E+03  1.727E+00  8.909E+00  6.682E-02  1.864E+00
   1    3    7     3     3    1.4684E+00  1.9718E-01   1.2712E+00  0.000E+00  0.000E+00  0.000E+00  1.06987E+03  1.555E+00  8.218E+00  5.547E-02  1.777E+00
   1    4    8     3     4    1.2712E+00  2.2567E-01   1.0456E+00  0.000E+00  0.000E+00  0.000E+00  1.06682E+03  1.364E+00  7.455E+00  6.709E-02  1.682E+00
   1    5    8     3     5    1.0456E+00  1.5790E-01   8.8768E-01  0.000E+00  0.000E+00  0.000E+00  1.06362E+03  1.164E+00  6.655E+00  4.991E-02  1.582E+00
   1    6    8     3     6    8.8768E-01  5.5980E-02   8.3170E-01  0.000E+00  0.000E+00  0.000E+00  1.06158E+03  1.036E+00  6.145E+00  1.844E-02  1.518E+00
   1    5   10     4     1    1.0000E+01  9.0919E-02   9.9091E+00  0.000E+00  0.000E+00  0.000E+00  1.07836E+03  6.368E-01  1.000E+01  2.500E-02  1.212E+00
   1    5    9     4     2    9.9091E+00  1.8158E-01   9.7275E+00  0.000E+00  0.000E+00  0.000E+00  1.07154E+03  6.315E-01  1.000E+01  5.000E-02  1.211E+00
   1    6    8     4     3    9.7275E+00  1.2689E-01   9.6006E+00  0.000E+00  0.000E+00  0.000E+00  1.06381E+03  6.256E-01  1.000E+01  3.500E-02  1.209E+00
   1    6    8     5     1    1.0432E+01  2.2686E-09   1.0432E+01  0.000E+00  0.000E+00  0.000E+00  1.05868E+03  6.790E-01  1.542E+01  6.166E-10  1.226E+00
   1    7    7     5     2    1.0432E+01  2.8306E-09   1.0432E+01  0.000E+00  0.000E+00  0.000E+00  1.05418E+03  6.784E-01  1.539E+01  7.695E-10  1.226E+00
   1    8    7     5     3    1.0432E+01  1.9868E-09   1.0432E+01  0.000E+00  0.000E+00  0.000E+00  1.04993E+03  6.794E-01  1.543E+01  5.400E-10  1.226E+00
   1    8    6     5     4    1.0432E+01  1.4217E-09   1.0432E+01  0.000E+00  0.000E+00  0.000E+00  1.04693E+03  6.800E-01  1.545E+01  3.863E-10  1.227E+00
   1    9    6     6     1    7.0304E+01  3.1606E-01   6.9988E+01  0.000E+00  0.000E+00  0.000E+00  1.04499E+03  2.268E+00  1.200E+01  6.000E-02  1.756E+00
   1   10    7     6     2    6.9988E+01  3.1569E-01   6.9672E+01  0.000E+00  0.000E+00  0.000E+00  1.04044E+03  2.261E+00  1.200E+01  6.000E-02  1.754E+00
   1   11    7     6     3    6.9672E+01  3.1532E-01   6.9357E+01  0.000E+00  0.000E+00  0.000E+00  1.03589E+03  2.255E+00  1.200E+01  6.000E-02  1.752E+00
   1   12    7     6     4    6.9357E+01  3.1495E-01   6.9042E+01  0.000E+00  0.000E+00  0.000E+00  1.03134E+03  2.249E+00  1.200E+01  6.000E-02  1.750E+00
   1   13    7     6     5    6.9042E+01  1.2588E-01   6.8916E+01  0.000E+00  0.000E+00  0.000E+00  1.02815E+03  2.245E+00  1.200E+01  2.400E-02  1.748E+00
   1   14    9     7     1    1.5000E+02  2.9539E-08   1.5000E+02  0.000E+00  0.000E+00  0.000E+00  1.03986E+03  2.283E+00  5.528E+01  5.591E-09  1.761E+00
   1   13    8     7     2    1.5000E+02  3.2486E-14   1.5000E+02  0.000E+00  0.000E+00  0.000E+00  1.03478E+03  2.283E+00  5.527E+01  6.150E-15  1.761E+00
   1   13    7     7     3    1.5000E+02  2.9539E-08   1.5000E+02  0.000E+00  0.000E+00  0.000E+00  1.02970E+03  2.283E+00  5.528E+01  5.591E-09  1.761E+00
   1   13    6     8     1    2.1892E+02  2.9839E-11   2.1892E+02  0.000E+00  0.000E+00  0.000E+00  1.02511E+03  3.238E+00  4.694E+01  4.784E-12  2.079E+00
   1   13    5     8     2    2.1892E+02  2.9839E-11   2.1892E+02  0.000E+00  0.000E+00  0.000E+00  1.01886E+03  3.238E+00  4.694E+01  4.784E-12  2.079E+00
   1   13    4     8     3    2.1892E+02  2.1005E-32   2.1892E+02  0.000E+00  0.000E+00  0.000E+00  1.01262E+03  3.246E+00  4.707E+01  4.796E-33  1.460E+00
   1   13    3     8     4    2.1892E+02  3.5124E-08   2.1892E+02  0.000E+00  0.000E+00  0.000E+00  1.00637E+03  3.245E+00  4.705E+01  4.795E-08  2.442E-01
   1   13    2     8     5    2.1892E+02 -2.0765E+00   2.2099E+02  0.000E+00  0.000E+00  0.000E+00  1.00013E+03  3.252E+00  4.715E+01  4.805E+00 -1.441E-01
   1   13    1     8     6    2.2099E+02 -2.0321E+00   2.2302E+02  0.000E+00  0.000E+00  0.000E+00  9.95138E+02  3.263E+00  4.731E+01  2.893E+00 -2.342E-01
   1    6    8     9     1    0.0000E+00  0.0000E+00   0.0000E+00  0.000E+00  0.000E+00  0.000E+00  1.07850E+03  0.000E+00  4.000E+00  0.000E+00  1.000E+00





UNSATURATED ZONE PACKAGE VOLUMETRIC BUDGET FOR  TIME STEP    30 STRESS PERIOD   16
  ------------------------------------------------------------------------------



     CUMULATIVE VOLUMES      L**3       RATES FOR THIS TIME STEP      L**3/T
     ------------------                 ------------------------

           IN:                                      IN:
           ---                                      ---
        INFILTRATION =    65682243.1201          INFILTRATION =           0.8475

          OUT:                                     OUT:
          ----                                     ----
              UZF ET =   564384040.1139                UZF ET =           0.1570
        UZF RECHARGE =  1061769418.2655          UZF RECHARGE =          25.5469

            IN - OUT = -1560471215.2593              IN - OUT =         -24.8563

          STORAGE:                                 STORAGE:
          --------                                 --------
      STORAGE CHANGE = -1560463427.6435        STORAGE CHANGE =         -24.8563

 PERCENT DISCREPANCY IS DIFFERENCE BETWEEN IN-OUT MINUS CHANGE IN STORAGE
 DIVIDED BY THE AVERAGE OF IN AND OUT TIMES 100

 PERCENT DISCREPANCY =          -0.00     PERCENT DISCREPANCY =           0.00






1
  VOLUMETRIC BUDGET FOR ENTIRE MODEL AT END OF TIME STEP   30, STRESS PERIOD  16
  ------------------------------------------------------------------------------

     CUMULATIVE VOLUMES      L**3       RATES FOR THIS TIME STEP      L**3/T
     ------------------                 ------------------------

           IN:                                      IN:
           ---                                      ---
             STORAGE =    16216354.0000               STORAGE =           0.7632
       CONSTANT HEAD =           0.0000         CONSTANT HEAD =           0.0000
               WELLS =           0.0000                 WELLS =           0.0000
     HEAD DEP BOUNDS =    43617440.0000       HEAD DEP BOUNDS =           0.9998
      STREAM LEAKAGE =   165723712.0000        STREAM LEAKAGE =           4.5633
        UZF RECHARGE =  1061769472.0000          UZF RECHARGE =          25.5469
               GW ET =           0.0000                 GW ET =           0.0000
     SURFACE LEAKAGE =           0.0000       SURFACE LEAKAGE =           0.0000

            TOTAL IN =  1287326976.0000              TOTAL IN =          31.8731

          OUT:                                     OUT:
          ----                                     ----
             STORAGE =  1133171968.0000               STORAGE =          27.3892
       CONSTANT HEAD =           0.0000         CONSTANT HEAD =           0.0000
               WELLS =     1059111.1250                 WELLS =           0.0000
     HEAD DEP BOUNDS =    11965894.0000       HEAD DEP BOUNDS =           0.2979
      STREAM LEAKAGE =   103329584.0000        STREAM LEAKAGE =           4.1086
        UZF RECHARGE =           0.0000          UZF RECHARGE =           0.0000
               GW ET =    37681112.0000                 GW ET =       7.3509E-02
     SURFACE LEAKAGE =           0.0000       SURFACE LEAKAGE =           0.0000

           TOTAL OUT =  1287207680.0000             TOTAL OUT =          31.8693

            IN - OUT =      119296.0000              IN - OUT =       3.8357E-03

 PERCENT DISCREPANCY =           0.01     PERCENT DISCREPANCY =           0.01






         TIME SUMMARY AT END OF TIME STEP   30 IN STRESS PERIOD   16
                    SECONDS     MINUTES      HOURS       DAYS        YEARS
                    -----------------------------------------------------------
   TIME STEP LENGTH  87600.      1460.0      24.333      1.0139     2.77588E-03
 STRESS PERIOD TIME 2.62800E+06  43800.      730.00      30.417     8.32763E-02
         TOTAL TIME 4.20480E+07 7.00800E+05  11680.      486.67      1.3324    
1
1
                            STRESS PERIOD NO.   17, LENGTH =   2628000.    
                            -----------------------------------------------

                              NUMBER OF TIME STEPS =    30

                               MULTIPLIER FOR DELT =     1.000

                            INITIAL TIME STEP SIZE =   87600.00    

 WELL NO.  LAYER   ROW   COL   STRESS RATE         
 --------------------------------------------------
      1      1      6      4       0.000    
      2      1      6      7       0.000    
      3      1      7      4       0.000    
      4      1      7      5       0.000    
      5      1      8      4       0.000    
      6      1      8      5       0.000    
      7      1      9      4       0.000    
      8      1      9      5       0.000    
      9      1     10      4       0.000    
     10      1     10      5       0.000    

     10 WELLS

 REUSING NON-PARAMETER GHB CELLS FROM LAST STRESS PERIOD

      2 GHB CELLS

 REUSING STREAM SEGMENT DATA FROM LAST STRESS PERIOD



            AREAL INFILTRATION RATE
 READING ON UNIT   19 WITH FORMAT: (10F4.0)            

            1           2           3           4           5           6           7           8           9          10
 ........................................................................................................................
   1   1.0000E-10  2.0000E-10   0.000       0.000       0.000       0.000       0.000       0.000       0.000       0.000    
   2   2.0000E-10  1.0000E-10  2.0000E-10   0.000       0.000      8.0000E-10  8.0000E-10  5.0000E-10   0.000       0.000    
   3    0.000      5.0000E-10  1.0000E-10  1.0000E-10  8.0000E-10  8.0000E-10  5.0000E-10  5.0000E-10   0.000       0.000    
   4   8.0000E-10  5.0000E-10  1.0000E-10  1.0000E-10  1.0000E-10  1.0000E-10  1.0000E-10  1.0000E-10  2.0000E-10   0.000    
   5   8.0000E-10  5.0000E-10  1.0000E-10  1.0000E-10  1.0000E-10  1.0000E-10  1.0000E-10  1.0000E-10  1.0000E-10  1.0000E-10
   6   8.0000E-10  5.0000E-10  5.0000E-10  2.0000E-10  2.0000E-10  1.0000E-10  1.0000E-10  1.0000E-10  1.0000E-10  5.0000E-10
   7   8.0000E-10  5.0000E-10  5.0000E-10  2.0000E-10  2.0000E-10  1.0000E-10  1.0000E-10  2.0000E-10  2.0000E-10   0.000    
   8    0.000      5.0000E-10  5.0000E-10  2.0000E-10  2.0000E-10  1.0000E-10  1.0000E-10  2.0000E-10  5.0000E-10   0.000    
   9    0.000      5.0000E-10  5.0000E-10  2.0000E-10  2.0000E-10  1.0000E-10  1.0000E-10  2.0000E-10  5.0000E-10   0.000    
  10    0.000      5.0000E-10  5.0000E-10  2.0000E-10  2.0000E-10  1.0000E-10  1.0000E-10  2.0000E-10  5.0000E-10  8.0000E-10
  11    0.000      1.0000E-10  1.0000E-10  1.0000E-10  1.0000E-10  1.0000E-10  1.0000E-10  2.0000E-10  5.0000E-10   0.000    
  12   1.0000E-10  1.0000E-10  1.0000E-10  1.0000E-10  1.0000E-10  1.0000E-10  1.0000E-10  1.0000E-10  2.0000E-10   0.000    
  13   1.0000E-10  1.0000E-10  2.0000E-10  2.0000E-10  2.0000E-10  2.0000E-10  2.0000E-10  1.0000E-10  1.0000E-10   0.000    
  14    0.000      2.0000E-10  5.0000E-10  5.0000E-10  5.0000E-10  5.0000E-10  5.0000E-10  2.0000E-10  1.0000E-10   0.000    
  15    0.000       0.000      8.0000E-10  8.0000E-10  8.0000E-10  8.0000E-10   0.000       0.000       0.000       0.000    

                  ET RATE =  5.000000E-09

 USING ET EXTINCTION DEPTH FROM PREVIOUS STRESS PERIOD. CURRENT PERIOD IS:      17

 USING EXTINCTION WATER CONTENT FROM PREVIOUS STRESS PERIOD. CURRENT PERIOD IS:      17
 
 SOLVING FOR HEAD 
                                                   Max.-Head-Change                         Max.-Flux-Residual
  Residual-Control   Outer-Iter.   Inner-Iter.     Column Row Layer    Maximum-Head-Change  Column Row Layer    Maximum-Flux-Residual          L2-NORM 
          0                 1           2             2   13     1      -0.2295513378E-01       2   13    1        -0.1307206848E+01      0.2332269356E+01
          0                 2           2             8    2     1       0.2502914452E-02       2   13    1         0.1295546947E+00      0.4526301172E+00
          0                 3           2             8    2     1       0.1125131725E-02       8    2    1         0.2921588099E-01      0.1519327354E+00
          0                 4           2             8    2     1       0.5057784832E-03       8    2    1         0.1313337346E-01      0.6462395374E-01
          0                 5           2             8    2     1       0.2273615073E-03       8    2    1         0.5903821368E-02      0.2870618010E-01
          0                 6           1             8    2     1       0.1022052341E-03       8    2    1         0.2653931630E-02      0.1283522181E-01
          0                 7           1             8    2     1       0.4594401454E-04       8    2    1         0.1193014875E-02      0.5744974926E-02
          0                 8           1             8    2     1       0.2065305709E-04       8    2    1         0.5362923321E-03      0.2571935511E-02
          0                 9           1             8    2     1       0.9284089664E-05       8    2    1         0.2410776289E-03      0.1151545578E-02

    ------------------------------------------------
       NWT REQUIRED            9 OUTER ITERATIONS 
       AND A TOTAL OF         14 INNER ITERATIONS.
    ------------------------------------------------

 NO OUTPUT CONTROL FOR STRESS PERIOD   17   TIME STEP    1
 
 SOLVING FOR HEAD 
                                                   Max.-Head-Change                         Max.-Flux-Residual
  Residual-Control   Outer-Iter.   Inner-Iter.     Column Row Layer    Maximum-Head-Change  Column Row Layer    Maximum-Flux-Residual          L2-NORM 
          0                 1           2             2   13     1      -0.2095216115E-01       2   13    1        -0.1192993348E+01      0.2262167054E+01
          0                 2           2             8    2     1       0.2502011609E-02       2   13    1         0.1182272350E+00      0.4489092842E+00
          0                 3           2             8    2     1       0.1124725345E-02       8    2    1         0.2920533984E-01      0.1517399551E+00
          0                 4           2             8    2     1       0.5055955691E-03       8    2    1         0.1312862878E-01      0.6457496239E-01
          0                 5           2             8    2     1       0.2272791774E-03       8    2    1         0.5901685765E-02      0.2868539645E-01
          0                 6           1             8    2     1       0.1021681776E-03       8    2    1         0.2652970395E-02      0.1282613215E-01
          0                 7           1             8    2     1       0.4592733576E-04       8    2    1         0.1192582228E-02      0.5740941618E-02
          0                 8           1             8    2     1       0.2064555001E-04       8    2    1         0.5360976013E-03      0.2570196276E-02
          0                 9           1             8    2     1       0.9280711164E-05       8    2    1         0.2409899852E-03      0.1150778069E-02

    ------------------------------------------------
       NWT REQUIRED            9 OUTER ITERATIONS 
       AND A TOTAL OF         14 INNER ITERATIONS.
    ------------------------------------------------

 NO OUTPUT CONTROL FOR STRESS PERIOD   17   TIME STEP    2
 
 SOLVING FOR HEAD 
                                                   Max.-Head-Change                         Max.-Flux-Residual
  Residual-Control   Outer-Iter.   Inner-Iter.     Column Row Layer    Maximum-Head-Change  Column Row Layer    Maximum-Flux-Residual          L2-NORM 
          0                 1           2             2   13     1      -0.1912632576E-01       2   13    1        -0.1088896009E+01      0.2201248642E+01
          0                 2           2             8    2     1       0.2501108942E-02       2   13    1         0.1079051963E+00      0.4456291630E+00
          0                 3           2             8    2     1       0.1124319061E-02       8    2    1         0.2919480082E-01      0.1515013382E+00
          0                 4           2             8    2     1       0.5054127050E-03       8    2    1         0.1312388525E-01      0.6449614215E-01
          0                 5           2             8    2     1       0.2271968729E-03       8    2    1         0.5899550754E-02      0.2865034438E-01
          0                 6           1             8    2     1       0.1021311342E-03       8    2    1         0.2652009462E-02      0.1281039242E-01
          0                 7           1             8    2     1       0.4591066311E-04       8    2    1         0.1192149727E-02      0.5733917840E-02
          0                 8           1             8    2     1       0.2063804605E-04       8    2    1         0.5359029448E-03      0.2567160452E-02
          0                 9           1             8    2     1       0.9277333915E-05       8    2    1         0.2409023767E-03      0.1149658983E-02

    ------------------------------------------------
       NWT REQUIRED            9 OUTER ITERATIONS 
       AND A TOTAL OF         14 INNER ITERATIONS.
    ------------------------------------------------

 NO OUTPUT CONTROL FOR STRESS PERIOD   17   TIME STEP    3
 
 SOLVING FOR HEAD 
                                                   Max.-Head-Change                         Max.-Flux-Residual
  Residual-Control   Outer-Iter.   Inner-Iter.     Column Row Layer    Maximum-Head-Change  Column Row Layer    Maximum-Flux-Residual          L2-NORM 
          0                 1           2             2   13     1      -0.1746160439E-01       2   13    1        -0.9939975409E+00      0.2148743228E+01
          0                 2           2             8    2     1       0.2500186363E-02       2   13    1         0.9849632441E-01      0.4429354070E+00
          0                 3           2             8    2     1       0.1123903820E-02       8    2    1         0.2918402934E-01      0.1513452869E+00
          0                 4           2             8    2     1       0.5052258122E-03       8    2    1         0.1311903716E-01      0.6445134870E-01
          0                 5           2             8    2     1       0.2271127566E-03       8    2    1         0.5897368715E-02      0.2863092316E-01
          0                 6           1             8    2     1       0.1020932755E-03       8    2    1         0.2651027371E-02      0.1280183571E-01
          0                 7           1             8    2     1       0.4589362405E-04       8    2    1         0.1191707713E-02      0.5730099341E-02
          0                 8           1             8    2     1       0.2063037752E-04       8    2    1         0.5357040059E-03      0.2565355261E-02
          0                 9           1             8    2     1       0.9273882257E-05       8    2    1         0.2408128372E-03      0.1148616117E-02

    ------------------------------------------------
       NWT REQUIRED            9 OUTER ITERATIONS 
       AND A TOTAL OF         14 INNER ITERATIONS.
    ------------------------------------------------

 NO OUTPUT CONTROL FOR STRESS PERIOD   17   TIME STEP    4
 
 SOLVING FOR HEAD 
                                                   Max.-Head-Change                         Max.-Flux-Residual
  Residual-Control   Outer-Iter.   Inner-Iter.     Column Row Layer    Maximum-Head-Change  Column Row Layer    Maximum-Flux-Residual          L2-NORM 
          0                 1           2             2   13     1      -0.1594387079E-01       2   13    1        -0.9074742768E+00      0.2103203445E+01
          0                 2           2             8    2     1       0.2499264106E-02       2   13    1         0.8991809031E-01      0.4404637199E+00
          0                 3           2             8    2     1       0.1123488760E-02       8    2    1         0.2917326181E-01      0.1511041479E+00
          0                 4           2             8    2     1       0.5050390164E-03       8    2    1         0.1311419125E-01      0.6436201150E-01
          0                 5           2             8    2     1       0.2270286911E-03       8    2    1         0.5895187843E-02      0.2859124216E-01
          0                 6           1             8    2     1       0.1020554427E-03       8    2    1         0.2650045890E-02      0.1278418458E-01
          0                 7           1             8    2     1       0.4587659799E-04       8    2    1         0.1191266013E-02      0.5722296013E-02
          0                 8           1             8    2     1       0.2062271524E-04       8    2    1         0.5355052296E-03      0.2561992017E-02
          0                 9           1             8    2     1       0.9270434351E-05       8    2    1         0.2407233855E-03      0.1147358382E-02

    ------------------------------------------------
       NWT REQUIRED            9 OUTER ITERATIONS 
       AND A TOTAL OF         14 INNER ITERATIONS.
    ------------------------------------------------

 NO OUTPUT CONTROL FOR STRESS PERIOD   17   TIME STEP    5
 
 SOLVING FOR HEAD 
                                                   Max.-Head-Change                         Max.-Flux-Residual
  Residual-Control   Outer-Iter.   Inner-Iter.     Column Row Layer    Maximum-Head-Change  Column Row Layer    Maximum-Flux-Residual          L2-NORM 
          0                 1           2             2   13     1      -0.1455991336E-01       2   13    1        -0.8286041583E+00      0.2063895198E+01
          0                 2           2             8    2     1       0.2498362053E-02       2   13    1         0.8209955935E-01      0.4384524366E+00
          0                 3           2             8    2     1       0.1123082740E-02       8    2    1         0.2916272989E-01      0.1509711838E+00
          0                 4           2             8    2     1       0.5048562662E-03       8    2    1         0.1310945078E-01      0.6432190859E-01
          0                 5           2             8    2     1       0.2269464357E-03       8    2    1         0.5893054153E-02      0.2857396693E-01
          0                 6           1             8    2     1       0.1020184201E-03       8    2    1         0.2649085524E-02      0.1277656599E-01
          0                 7           1             8    2     1       0.4585993459E-04       8    2    1         0.1190833760E-02      0.5718930516E-02
          0                 8           1             8    2     1       0.2061521541E-04       8    2    1         0.5353106759E-03      0.2560377727E-02
          0                 9           1             8    2     1       0.9267058603E-05       8    2    1         0.2406358185E-03      0.1146402639E-02

    ------------------------------------------------
       NWT REQUIRED            9 OUTER ITERATIONS 
       AND A TOTAL OF         14 INNER ITERATIONS.
    ------------------------------------------------

 NO OUTPUT CONTROL FOR STRESS PERIOD   17   TIME STEP    6
 
 SOLVING FOR HEAD 
                                                   Max.-Head-Change                         Max.-Flux-Residual
  Residual-Control   Outer-Iter.   Inner-Iter.     Column Row Layer    Maximum-Head-Change  Column Row Layer    Maximum-Flux-Residual          L2-NORM 
          0                 1           2             2   13     1      -0.1329756386E-01       2   13    1        -0.7566758555E+00      0.2029914051E+01
          0                 2           2             8    2     1       0.2497440155E-02       2   13    1         0.7496903352E-01      0.4367357515E+00
          0                 3           2             8    2     1       0.1122667823E-02       8    2    1         0.2915196645E-01      0.1508532653E+00
          0                 4           2             8    2     1       0.5046695275E-03       8    2    1         0.1310460651E-01      0.6428497407E-01
          0                 5           2             8    2     1       0.2268623916E-03       8    2    1         0.5890873924E-02      0.2855791067E-01
          0                 6           1             8    2     1       0.1019805959E-03       8    2    1         0.2648104295E-02      0.1276948462E-01
          0                 7           1             8    2     1       0.4584291166E-04       8    2    1         0.1190392151E-02      0.5715757464E-02
          0                 8           1             8    2     1       0.2060755401E-04       8    2    1         0.5351119295E-03      0.2558995043E-02
          0                 9           1             8    2     1       0.9263610822E-05       8    2    1         0.2405463761E-03      0.1145793268E-02

    ------------------------------------------------
       NWT REQUIRED            9 OUTER ITERATIONS 
       AND A TOTAL OF         14 INNER ITERATIONS.
    ------------------------------------------------

 NO OUTPUT CONTROL FOR STRESS PERIOD   17   TIME STEP    7
 
 SOLVING FOR HEAD 
                                                   Max.-Head-Change                         Max.-Flux-Residual
  Residual-Control   Outer-Iter.   Inner-Iter.     Column Row Layer    Maximum-Head-Change  Column Row Layer    Maximum-Flux-Residual          L2-NORM 
          0                 1           2             2   13     1      -0.1214592691E-01       2   13    1        -0.6910650357E+00      0.2000792676E+01
          0                 2           2             8    2     1       0.2496518602E-02       2   13    1         0.6846564763E-01      0.4352613885E+00
          0                 3           2             8    2     1       0.1122253087E-02       8    2    1         0.2914120716E-01      0.1507409226E+00
          0                 4           2             8    2     1       0.5044828805E-03       8    2    1         0.1309976439E-01      0.6424756948E-01
          0                 5           2             8    2     1       0.2267783944E-03       8    2    1         0.5888694794E-02      0.2854149173E-01
          0                 6           1             8    2     1       0.1019427945E-03       8    2    1         0.2647123612E-02      0.1276224867E-01
          0                 7           1             8    2     1       0.4582589998E-04       8    2    1         0.1189950814E-02      0.5712594939E-02
          0                 8           1             8    2     1       0.2059989836E-04       8    2    1         0.5349133168E-03      0.2557569041E-02
          0                 9           1             8    2     1       0.9260165792E-05       8    2    1         0.2404569967E-03      0.1145158836E-02

    ------------------------------------------------
       NWT REQUIRED            9 OUTER ITERATIONS 
       AND A TOTAL OF         14 INNER ITERATIONS.
    ------------------------------------------------

 NO OUTPUT CONTROL FOR STRESS PERIOD   17   TIME STEP    8
 
 SOLVING FOR HEAD 
                                                   Max.-Head-Change                         Max.-Flux-Residual
  Residual-Control   Outer-Iter.   Inner-Iter.     Column Row Layer    Maximum-Head-Change  Column Row Layer    Maximum-Flux-Residual          L2-NORM 
          0                 1           2             2   13     1      -0.1109512256E-01       2   13    1        -0.6312064229E+00      0.1975468505E+01
          0                 2           2             8    2     1       0.2495597368E-02       8    2    1         0.6480239631E-01      0.4339662514E+00
          0                 3           2             8    2     1       0.1121838490E-02       8    2    1         0.2913045157E-01      0.1506319357E+00
          0                 4           2             8    2     1       0.5042962953E-03       8    2    1         0.1309492391E-01      0.6421017624E-01
          0                 5           2             8    2     1       0.2266944243E-03       8    2    1         0.5886516381E-02      0.2852519651E-01
          0                 6           1             8    2     1       0.1019050048E-03       8    2    1         0.2646143243E-02      0.1275505063E-01
          0                 7           1             8    2     1       0.4580889368E-04       8    2    1         0.1189509620E-02      0.5709379393E-02
          0                 8           1             8    2     1       0.2059224521E-04       8    2    1         0.5347147664E-03      0.2556172603E-02
          0                 9           1             8    2     1       0.9256721638E-05       8    2    1         0.2403676424E-03      0.1144812652E-02

    ------------------------------------------------
       NWT REQUIRED            9 OUTER ITERATIONS 
       AND A TOTAL OF         14 INNER ITERATIONS.
    ------------------------------------------------

 NO OUTPUT CONTROL FOR STRESS PERIOD   17   TIME STEP    9
 
 SOLVING FOR HEAD 
                                                   Max.-Head-Change                         Max.-Flux-Residual
  Residual-Control   Outer-Iter.   Inner-Iter.     Column Row Layer    Maximum-Head-Change  Column Row Layer    Maximum-Flux-Residual          L2-NORM 
          0                 1           2             2   13     1      -0.1013613040E-01       2   13    1        -0.5765907540E+00      0.1953559562E+01
          0                 2           2             8    2     1       0.2494696439E-02       8    2    1         0.6477902586E-01      0.4328319008E+00
          0                 3           2             8    2     1       0.1121432999E-02       8    2    1         0.2911993290E-01      0.1505323005E+00
          0                 4           2             8    2     1       0.5041137929E-03       8    2    1         0.1309018966E-01      0.6417591948E-01
          0                 5           2             8    2     1       0.2266122852E-03       8    2    1         0.5884385611E-02      0.2851022176E-01
          0                 6           1             8    2     1       0.1018680363E-03       8    2    1         0.2645184242E-02      0.1274841070E-01
          0                 7           1             8    2     1       0.4579225567E-04       8    2    1         0.1189078004E-02      0.5706432172E-02
          0                 8           1             8    2     1       0.2058475702E-04       8    2    1         0.5345205086E-03      0.2554863243E-02
          0                 9           1             8    2     1       0.9253351142E-05       8    2    1         0.2402802120E-03      0.1143961548E-02

    ------------------------------------------------
       NWT REQUIRED            9 OUTER ITERATIONS 
       AND A TOTAL OF         14 INNER ITERATIONS.
    ------------------------------------------------

 NO OUTPUT CONTROL FOR STRESS PERIOD   17   TIME STEP   10
 
 SOLVING FOR HEAD 
                                                   Max.-Head-Change                         Max.-Flux-Residual
  Residual-Control   Outer-Iter.   Inner-Iter.     Column Row Layer    Maximum-Head-Change  Column Row Layer    Maximum-Flux-Residual          L2-NORM 
          0                 1           2             2   13     1      -0.9260753147E-02       2   13    1        -0.5267455446E+00      0.1934811929E+01
          0                 2           2             8    2     1       0.2493775736E-02       8    2    1         0.6475514081E-01      0.4318730221E+00
          0                 3           2             8    2     1       0.1121018643E-02       8    2    1         0.2910918352E-01      0.1504405478E+00
          0                 4           2             8    2     1       0.5039273162E-03       8    2    1         0.1308535198E-01      0.6414254374E-01
          0                 5           2             8    2     1       0.2265283638E-03       8    2    1         0.5882208467E-02      0.2849548551E-01
          0                 6           1             8    2     1       0.1018302696E-03       8    2    1         0.2644204456E-02      0.1274189036E-01
          0                 7           1             8    2     1       0.4577525900E-04       8    2    1         0.1188637066E-02      0.5703573482E-02
          0                 8           1             8    2     1       0.2057710824E-04       8    2    1         0.5343220807E-03      0.2553572287E-02
          0                 9           1             8    2     1       0.9249909614E-05       8    2    1         0.2401909192E-03      0.1143384634E-02

    ------------------------------------------------
       NWT REQUIRED            9 OUTER ITERATIONS 
       AND A TOTAL OF         14 INNER ITERATIONS.
    ------------------------------------------------

 NO OUTPUT CONTROL FOR STRESS PERIOD   17   TIME STEP   11
 
 SOLVING FOR HEAD 
                                                   Max.-Head-Change                         Max.-Flux-Residual
  Residual-Control   Outer-Iter.   Inner-Iter.     Column Row Layer    Maximum-Head-Change  Column Row Layer    Maximum-Flux-Residual          L2-NORM 
          0                 1           2             2   13     1      -0.8461570025E-02       2   13    1        -0.4812446196E+00      0.1918293530E+01
          0                 2           2             8    2     1       0.2492855380E-02       8    2    1         0.6473126452E-01      0.4309371392E+00
          0                 3           2             8    2     1       0.1120604448E-02       8    2    1         0.2909843821E-01      0.1503386015E+00
          0                 4           2             8    2     1       0.5037409142E-03       8    2    1         0.1308051619E-01      0.6410698466E-01
          0                 5           2             8    2     1       0.2264444772E-03       8    2    1         0.5880032205E-02      0.2848002307E-01
          0                 6           1             8    2     1       0.1017925186E-03       8    2    1         0.2643225077E-02      0.1273502411E-01
          0                 7           1             8    2     1       0.4575827058E-04       8    2    1         0.1188196321E-02      0.5700485611E-02
          0                 8           1             8    2     1       0.2056946285E-04       8    2    1         0.5341237292E-03      0.2552221186E-02
          0                 9           1             8    2     1       0.9246468836E-05       8    2    1         0.2401016546E-03      0.1142785906E-02

    ------------------------------------------------
       NWT REQUIRED            9 OUTER ITERATIONS 
       AND A TOTAL OF         14 INNER ITERATIONS.
    ------------------------------------------------

 NO OUTPUT CONTROL FOR STRESS PERIOD   17   TIME STEP   12
 
 SOLVING FOR HEAD 
                                                   Max.-Head-Change                         Max.-Flux-Residual
  Residual-Control   Outer-Iter.   Inner-Iter.     Column Row Layer    Maximum-Head-Change  Column Row Layer    Maximum-Flux-Residual          L2-NORM 
          0                 1           2             2   13     1      -0.7731850335E-02       2   13    1        -0.4397062662E+00      0.1903554718E+01
          0                 2           2             8    2     1       0.2491935311E-02       8    2    1         0.6470739635E-01      0.4299820280E+00
          0                 3           2             8    2     1       0.1120190369E-02       8    2    1         0.2908769620E-01      0.1501553194E+00
          0                 4           2             8    2     1       0.5035545584E-03       8    2    1         0.1307568173E-01      0.6402655985E-01
          0                 5           2             8    2     1       0.2263606087E-03       8    2    1         0.5877856461E-02      0.2844253324E-01
          0                 6           1             8    2     1       0.1017547741E-03       8    2    1         0.2642245893E-02      0.1271761442E-01
          0                 7           1             8    2     1       0.4574128416E-04       8    2    1         0.1187755650E-02      0.5692434561E-02
          0                 8           1             8    2     1       0.2056181846E-04       8    2    1         0.5339254130E-03      0.2548509733E-02
          0                 9           1             8    2     1       0.9243028684E-05       8    2    1         0.2400124063E-03      0.1141078728E-02

    ------------------------------------------------
       NWT REQUIRED            9 OUTER ITERATIONS 
       AND A TOTAL OF         14 INNER ITERATIONS.
    ------------------------------------------------

 NO OUTPUT CONTROL FOR STRESS PERIOD   17   TIME STEP   13
 
 SOLVING FOR HEAD 
                                                   Max.-Head-Change                         Max.-Flux-Residual
  Residual-Control   Outer-Iter.   Inner-Iter.     Column Row Layer    Maximum-Head-Change  Column Row Layer    Maximum-Flux-Residual          L2-NORM 
          0                 1           2             7    6     1      -0.2442782870E+00       7    6    1        -0.1331862581E+02      0.1344946918E+02
          0                 2           2             7    6     1       0.2686491184E+00       7    6    1         0.1479153299E+02      0.1479739809E+02
          0                 3           2             7    6     1      -0.1488625821E-01       7    6    1        -0.8278480211E+00      0.8456587319E+00
          0                 4           2             7    6     1      -0.2629125089E-02       7    6    1        -0.1460767124E+00      0.1597537641E+00
          0                 5           2             7    6     1      -0.4649348312E-03       7    6    1        -0.2581089965E-01      0.3840330900E-01
          0                 6           1             8    2     1       0.1017162391E-03       7    6    1        -0.4566266798E-02      0.1350617122E-01
          0                 7           1             8    2     1       0.4572394346E-04       8    2    1         0.1187305752E-02      0.5746796840E-02
          0                 8           1             8    2     1       0.2055401574E-04       8    2    1         0.5337229653E-03      0.2551261070E-02
          0                 9           1             8    2     1       0.9239517375E-05       8    2    1         0.2399213063E-03      0.1140792758E-02

    ------------------------------------------------
       NWT REQUIRED            9 OUTER ITERATIONS 
       AND A TOTAL OF         14 INNER ITERATIONS.
    ------------------------------------------------

 NO OUTPUT CONTROL FOR STRESS PERIOD   17   TIME STEP   14
 
 SOLVING FOR HEAD 
                                                   Max.-Head-Change                         Max.-Flux-Residual
  Residual-Control   Outer-Iter.   Inner-Iter.     Column Row Layer    Maximum-Head-Change  Column Row Layer    Maximum-Flux-Residual          L2-NORM 
          0                 1           2             7    6     1      -0.2885481352E+00       7    6    1        -0.1573006098E+02      0.1583949300E+02
          0                 2           2             7    6     1       0.3168881493E+00       7    6    1         0.1744788976E+02      0.1745285349E+02
          0                 3           2             7    6     1      -0.1816200317E-01       7    6    1        -0.1009876705E+01      0.1025717733E+01
          0                 4           2             7    6     1      -0.3208358881E-02       7    6    1        -0.1782354714E+00      0.1896596808E+00
          0                 5           2             7    6     1      -0.5674852566E-03       7    6    1        -0.3149982344E-01      0.4242863115E-01
          0                 6           1             8    2     1       0.1016785403E-03       7    6    1        -0.5573855492E-02      0.1387431723E-01
          0                 7           1             8    2     1       0.4570697893E-04       8    2    1         0.1186865622E-02      0.5772231381E-02
          0                 8           1             8    2     1       0.2054638148E-04       8    2    1         0.5335249043E-03      0.2552152561E-02
          0                 9           1             8    2     1       0.9236082100E-05       8    2    1         0.2398321793E-03      0.1140443735E-02

    ------------------------------------------------
       NWT REQUIRED            9 OUTER ITERATIONS 
       AND A TOTAL OF         14 INNER ITERATIONS.
    ------------------------------------------------

 NO OUTPUT CONTROL FOR STRESS PERIOD   17   TIME STEP   15
 
 SOLVING FOR HEAD 
                                                   Max.-Head-Change                         Max.-Flux-Residual
  Residual-Control   Outer-Iter.   Inner-Iter.     Column Row Layer    Maximum-Head-Change  Column Row Layer    Maximum-Flux-Residual          L2-NORM 
          0                 1           2             7    6     1      -0.2885560837E+00       7    6    1        -0.1573050817E+02      0.1583880816E+02
          0                 2           2             7    6     1       0.3168877488E+00       7    6    1         0.1744788145E+02      0.1745283120E+02
          0                 3           2             7    6     1      -0.1816319218E-01       7    6    1        -0.1009943108E+01      0.1025768557E+01
          0                 4           2             7    6     1      -0.3208567711E-02       7    6    1        -0.1782471291E+00      0.1896586769E+00
          0                 5           2             7    6     1      -0.5675219577E-03       7    6    1        -0.3150187128E-01      0.4241972854E-01
          0                 6           1             8    2     1       0.1016408507E-03       7    6    1        -0.5574215382E-02      0.1386810027E-01
          0                 7           1             8    2     1       0.4569001803E-04       8    2    1         0.1186425598E-02      0.5769184553E-02
          0                 8           1             8    2     1       0.2053874884E-04       8    2    1         0.5333268831E-03      0.2550769199E-02
          0                 9           1             8    2     1       0.9232647450E-05       8    2    1         0.2397430653E-03      0.1139822244E-02

    ------------------------------------------------
       NWT REQUIRED            9 OUTER ITERATIONS 
       AND A TOTAL OF         14 INNER ITERATIONS.
    ------------------------------------------------

 NO OUTPUT CONTROL FOR STRESS PERIOD   17   TIME STEP   16
 
 SOLVING FOR HEAD 
                                                   Max.-Head-Change                         Max.-Flux-Residual
  Residual-Control   Outer-Iter.   Inner-Iter.     Column Row Layer    Maximum-Head-Change  Column Row Layer    Maximum-Flux-Residual          L2-NORM 
          0                 1           2             7    6     1      -0.2885635215E+00       7    6    1        -0.1573092732E+02      0.1583828175E+02
          0                 2           2             7    6     1       0.3168873432E+00       7    6    1         0.1744787293E+02      0.1745281019E+02
          0                 3           2             7    6     1      -0.1816429652E-01       7    6    1        -0.1010004831E+01      0.1025814236E+01
          0                 4           2             7    6     1      -0.3208761453E-02       7    6    1        -0.1782579529E+00      0.1896560466E+00
          0                 5           2             7    6     1      -0.5675559693E-03       7    6    1        -0.3150377053E-01      0.4241003736E-01
          0                 6           1             8    2     1       0.1016031885E-03       7    6    1        -0.5574548800E-02      0.1386151552E-01
          0                 7           1             8    2     1       0.4567306988E-04       8    2    1         0.1185985884E-02      0.5765972257E-02
          0                 8           1             8    2     1       0.2053112208E-04       8    2    1         0.5331290128E-03      0.2549319075E-02
          0                 9           1             8    2     1       0.9229215426E-05       8    2    1         0.2396540262E-03      0.1139175597E-02

    ------------------------------------------------
       NWT REQUIRED            9 OUTER ITERATIONS 
       AND A TOTAL OF         14 INNER ITERATIONS.
    ------------------------------------------------

 NO OUTPUT CONTROL FOR STRESS PERIOD   17   TIME STEP   17
 
 SOLVING FOR HEAD 
                                                   Max.-Head-Change                         Max.-Flux-Residual
  Residual-Control   Outer-Iter.   Inner-Iter.     Column Row Layer    Maximum-Head-Change  Column Row Layer    Maximum-Flux-Residual          L2-NORM 
          0                 1           2             7    6     1      -0.2885705956E+00       7    6    1        -0.1573132674E+02      0.1583787065E+02
          0                 2           2             7    6     1       0.3168869461E+00       7    6    1         0.1744786492E+02      0.1745279179E+02
          0                 3           2             7    6     1      -0.1816534912E-01       7    6    1        -0.1010063709E+01      0.1025859865E+01
          0                 4           2             7    6     1      -0.3208945907E-02       7    6    1        -0.1782682657E+00      0.1896553976E+00
          0                 5           2             7    6     1      -0.5675883158E-03       7    6    1        -0.3150557813E-01      0.4240234465E-01
          0                 6           1             8    2     1       0.1015647199E-03       7    6    1        -0.5574865806E-02      0.1385612276E-01
          0                 7           1             8    2     1       0.4565575932E-04       8    2    1         0.1185536767E-02      0.5763375918E-02
          0                 8           1             8    2     1       0.2052333262E-04       8    2    1         0.5329269145E-03      0.2548223602E-02
          0                 9           1             8    2     1       0.9225710245E-05       8    2    1         0.2395630838E-03      0.1138870253E-02

    ------------------------------------------------
       NWT REQUIRED            9 OUTER ITERATIONS 
       AND A TOTAL OF         14 INNER ITERATIONS.
    ------------------------------------------------

 NO OUTPUT CONTROL FOR STRESS PERIOD   17   TIME STEP   18
 
 SOLVING FOR HEAD 
                                                   Max.-Head-Change                         Max.-Flux-Residual
  Residual-Control   Outer-Iter.   Inner-Iter.     Column Row Layer    Maximum-Head-Change  Column Row Layer    Maximum-Flux-Residual          L2-NORM 
          0                 1           2             7    6     1      -0.2885770968E+00       7    6    1        -0.1573169487E+02      0.1583755112E+02
          0                 2           2             7    6     1       0.3168865333E+00       7    6    1         0.1744785608E+02      0.1745277404E+02
          0                 3           2             7    6     1      -0.1816629760E-01       7    6    1        -0.1010116829E+01      0.1025900457E+01
          0                 4           2             7    6     1      -0.3209111818E-02       7    6    1        -0.1782775535E+00      0.1896540082E+00
          0                 5           2             7    6     1      -0.5676173579E-03       7    6    1        -0.3150720311E-01      0.4239467641E-01
          0                 6           1             8    2     1       0.1015270892E-03       7    6    1        -0.5575150252E-02      0.1385080450E-01
          0                 7           1             8    2     1       0.4563882517E-04       8    2    1         0.1185097427E-02      0.5760717769E-02
          0                 8           1             8    2     1       0.2051571224E-04       8    2    1         0.5327292090E-03      0.2546932691E-02
          0                 9           1             8    2     1       0.9222280972E-05       8    2    1         0.2394741158E-03      0.1138106991E-02

    ------------------------------------------------
       NWT REQUIRED            9 OUTER ITERATIONS 
       AND A TOTAL OF         14 INNER ITERATIONS.
    ------------------------------------------------

 NO OUTPUT CONTROL FOR STRESS PERIOD   17   TIME STEP   19
 
 SOLVING FOR HEAD 
                                                   Max.-Head-Change                         Max.-Flux-Residual
  Residual-Control   Outer-Iter.   Inner-Iter.     Column Row Layer    Maximum-Head-Change  Column Row Layer    Maximum-Flux-Residual          L2-NORM 
          0                 1           2             7    6     1      -0.2885832959E+00       7    6    1        -0.1573204638E+02      0.1583729341E+02
          0                 2           2             7    6     1       0.3168861287E+00       7    6    1         0.1744784776E+02      0.1745275675E+02
          0                 3           2             7    6     1      -0.1816720533E-01       7    6    1        -0.1010167705E+01      0.1025937365E+01
          0                 4           2             7    6     1      -0.3209270437E-02       7    6    1        -0.1782864394E+00      0.1896507923E+00
          0                 5           2             7    6     1      -0.5676450952E-03       7    6    1        -0.3150875616E-01      0.4238568542E-01
          0                 6           1             8    2     1       0.1014886599E-03       7    6    1        -0.5575421835E-02      0.1384470074E-01
          0                 7           1             8    2     1       0.4562153287E-04       8    2    1         0.1184648772E-02      0.5757792077E-02
          0                 8           1             8    2     1       0.2050793078E-04       8    2    1         0.5325273191E-03      0.2545693638E-02
          0                 9           1             8    2     1       0.9218779668E-05       8    2    1         0.2393832702E-03      0.1137501871E-02

    ------------------------------------------------
       NWT REQUIRED            9 OUTER ITERATIONS 
       AND A TOTAL OF         14 INNER ITERATIONS.
    ------------------------------------------------

 NO OUTPUT CONTROL FOR STRESS PERIOD   17   TIME STEP   20
 
 SOLVING FOR HEAD 
                                                   Max.-Head-Change                         Max.-Flux-Residual
  Residual-Control   Outer-Iter.   Inner-Iter.     Column Row Layer    Maximum-Head-Change  Column Row Layer    Maximum-Flux-Residual          L2-NORM 
          0                 1           2             7    6     1      -0.2885890975E+00       7    6    1        -0.1573237615E+02      0.1583707284E+02
          0                 2           2             7    6     1       0.3168857210E+00       7    6    1         0.1744783932E+02      0.1745273958E+02
          0                 3           2             7    6     1      -0.1816804733E-01       7    6    1        -0.1010214951E+01      0.1025970329E+01
          0                 4           2             7    6     1      -0.3209417326E-02       7    6    1        -0.1782946775E+00      0.1896465141E+00
          0                 5           2             7    6     1      -0.5676707404E-03       7    6    1        -0.3151019367E-01      0.4237627614E-01
          0                 6           1             8    2     1       0.1014510702E-03       7    6    1        -0.5575672802E-02      0.1383841810E-01
          0                 7           1             8    2     1       0.4560461749E-04       8    2    1         0.1184209913E-02      0.5754739427E-02
          0                 8           1             8    2     1       0.2050031903E-04       8    2    1         0.5323298363E-03      0.2544208549E-02
          0                 9           1             8    2     1       0.9215354522E-05       8    2    1         0.2392944060E-03      0.1136886806E-02

    ------------------------------------------------
       NWT REQUIRED            9 OUTER ITERATIONS 
       AND A TOTAL OF         14 INNER ITERATIONS.
    ------------------------------------------------

 NO OUTPUT CONTROL FOR STRESS PERIOD   17   TIME STEP   21
 
 SOLVING FOR HEAD 
                                                   Max.-Head-Change                         Max.-Flux-Residual
  Residual-Control   Outer-Iter.   Inner-Iter.     Column Row Layer    Maximum-Head-Change  Column Row Layer    Maximum-Flux-Residual          L2-NORM 
          0                 1           2             7    6     1      -0.2885945291E+00       7    6    1        -0.1573268562E+02      0.1583692006E+02
          0                 2           2             7    6     1       0.3168853104E+00       7    6    1         0.1744783078E+02      0.1745272416E+02
          0                 3           2             7    6     1      -0.1816882851E-01       7    6    1        -0.1010258837E+01      0.1026002506E+01
          0                 4           2             7    6     1      -0.3209553370E-02       7    6    1        -0.1783023167E+00      0.1896438712E+00
          0                 5           2             7    6     1      -0.5676944505E-03       7    6    1        -0.3151152435E-01      0.4236859723E-01
          0                 6           1             8    2     1       0.1014126838E-03       7    6    1        -0.5575904732E-02      0.1383319649E-01
          0                 7           1             8    2     1       0.4558734457E-04       8    2    1         0.1183761756E-02      0.5752139701E-02
          0                 8           1             8    2     1       0.2049254683E-04       8    2    1         0.5321281784E-03      0.2543042427E-02
          0                 9           1             8    2     1       0.9211857219E-05       8    2    1         0.2392036645E-03      0.1136572842E-02

    ------------------------------------------------
       NWT REQUIRED            9 OUTER ITERATIONS 
       AND A TOTAL OF         14 INNER ITERATIONS.
    ------------------------------------------------

 NO OUTPUT CONTROL FOR STRESS PERIOD   17   TIME STEP   22
 
 SOLVING FOR HEAD 
                                                   Max.-Head-Change                         Max.-Flux-Residual
  Residual-Control   Outer-Iter.   Inner-Iter.     Column Row Layer    Maximum-Head-Change  Column Row Layer    Maximum-Flux-Residual          L2-NORM 
          0                 1           2             7    6     1      -0.2885996124E+00       7    6    1        -0.1573297620E+02      0.1583681211E+02
          0                 2           2             7    6     1       0.3168848983E+00       7    6    1         0.1744782217E+02      0.1745270889E+02
          0                 3           2             7    6     1      -0.1816955224E-01       7    6    1        -0.1010299554E+01      0.1026030024E+01
          0                 4           2             7    6     1      -0.3209679143E-02       7    6    1        -0.1783093894E+00      0.1896386062E+00
          0                 5           2             7    6     1      -0.5677163256E-03       7    6    1        -0.3151275380E-01      0.4235879262E-01
          0                 6           1             8    2     1       0.1013751325E-03       7    6    1        -0.5576118555E-02      0.1382661042E-01
          0                 7           1             8    2     1       0.4557044656E-04       8    2    1         0.1183323345E-02      0.5748937437E-02
          0                 8           1             8    2     1       0.2048494270E-04       8    2    1         0.5319308924E-03      0.2541675677E-02
          0                 9           1             8    2     1       0.9208435200E-05       8    2    1         0.2391148857E-03      0.1135689477E-02

    ------------------------------------------------
       NWT REQUIRED            9 OUTER ITERATIONS 
       AND A TOTAL OF         14 INNER ITERATIONS.
    ------------------------------------------------

 NO OUTPUT CONTROL FOR STRESS PERIOD   17   TIME STEP   23
 
 SOLVING FOR HEAD 
                                                   Max.-Head-Change                         Max.-Flux-Residual
  Residual-Control   Outer-Iter.   Inner-Iter.     Column Row Layer    Maximum-Head-Change  Column Row Layer    Maximum-Flux-Residual          L2-NORM 
          0                 1           2             7    6     1      -0.2886043705E+00       7    6    1        -0.1573324894E+02      0.1583671775E+02
          0                 2           2             7    6     1       0.3168844837E+00       7    6    1         0.1744781347E+02      0.1745269312E+02
          0                 3           2             7    6     1      -0.1817022253E-01       7    6    1        -0.1010337319E+01      0.1026053776E+01
          0                 4           2             7    6     1      -0.3209795389E-02       7    6    1        -0.1783159358E+00      0.1896323691E+00
          0                 5           2             7    6     1      -0.5677365008E-03       7    6    1        -0.3151388936E-01      0.4234875896E-01
          0                 6           1             8    2     1       0.1013367946E-03       7    6    1        -0.5576315656E-02      0.1382005174E-01
          0                 7           1             8    2     1       0.4555319603E-04       8    2    1         0.1182875760E-02      0.5745707345E-02
          0                 8           1             8    2     1       0.2047718113E-04       8    2    1         0.5317295038E-03      0.2540203325E-02
          0                 9           1             8    2     1       0.9204942900E-05       8    2    1         0.2390242706E-03      0.1135276875E-02

    ------------------------------------------------
       NWT REQUIRED            9 OUTER ITERATIONS 
       AND A TOTAL OF         14 INNER ITERATIONS.
    ------------------------------------------------

 NO OUTPUT CONTROL FOR STRESS PERIOD   17   TIME STEP   24
 
 SOLVING FOR HEAD 
                                                   Max.-Head-Change                         Max.-Flux-Residual
  Residual-Control   Outer-Iter.   Inner-Iter.     Column Row Layer    Maximum-Head-Change  Column Row Layer    Maximum-Flux-Residual          L2-NORM 
          0                 1           2             7    6     1      -0.2886088272E+00       7    6    1        -0.1573350508E+02      0.1583665675E+02
          0                 2           2             7    6     1       0.3168840672E+00       7    6    1         0.1744780472E+02      0.1745267855E+02
          0                 3           2             7    6     1      -0.1817084397E-01       7    6    1        -0.1010372385E+01      0.1026077101E+01
          0                 4           2             7    6     1      -0.3209902925E-02       7    6    1        -0.1783220010E+00      0.1896277742E+00
          0                 5           2             7    6     1      -0.5677551231E-03       7    6    1        -0.3151493916E-01      0.4234045199E-01
          0                 6           1             8    2     1       0.1012984777E-03       7    6    1        -0.5576497440E-02      0.1381455692E-01
          0                 7           1             8    2     1       0.4553595488E-04       8    2    1         0.1182428415E-02      0.5743031033E-02
          0                 8           1             8    2     1       0.2046942331E-04       8    2    1         0.5315282140E-03      0.2538896399E-02
          0                 9           1             8    2     1       0.9201451975E-05       8    2    1         0.2389336962E-03      0.1134497761E-02

    ------------------------------------------------
       NWT REQUIRED            9 OUTER ITERATIONS 
       AND A TOTAL OF         14 INNER ITERATIONS.
    ------------------------------------------------

 NO OUTPUT CONTROL FOR STRESS PERIOD   17   TIME STEP   25
 
 SOLVING FOR HEAD 
                                                   Max.-Head-Change                         Max.-Flux-Residual
  Residual-Control   Outer-Iter.   Inner-Iter.     Column Row Layer    Maximum-Head-Change  Column Row Layer    Maximum-Flux-Residual          L2-NORM 
          0                 1           2             7    6     1      -0.2886129987E+00       7    6    1        -0.1573374586E+02      0.1583662333E+02
          0                 2           2             7    6     1       0.3168836506E+00       7    6    1         0.1744779596E+02      0.1745266470E+02
          0                 3           2             7    6     1      -0.1817141870E-01       7    6    1        -0.1010404877E+01      0.1026098847E+01
          0                 4           2             7    6     1      -0.3210002096E-02       7    6    1        -0.1783276053E+00      0.1896235335E+00
          0                 5           2             7    6     1      -0.5677722482E-03       7    6    1        -0.3151590646E-01      0.4233276398E-01
          0                 6           1             8    2     1       0.1012601856E-03       7    6    1        -0.5576664496E-02      0.1380946674E-01
          0                 7           1             8    2     1       0.4551872548E-04       8    2    1         0.1181981368E-02      0.5740579687E-02
          0                 8           1             8    2     1       0.2046167037E-04       8    2    1         0.5313270597E-03      0.2537756796E-02
          0                 9           1             8    2     1       0.9197964051E-05       8    2    1         0.2388431910E-03      0.1133985553E-02

    ------------------------------------------------
       NWT REQUIRED            9 OUTER ITERATIONS 
       AND A TOTAL OF         14 INNER ITERATIONS.
    ------------------------------------------------

 NO OUTPUT CONTROL FOR STRESS PERIOD   17   TIME STEP   26
 
 SOLVING FOR HEAD 
                                                   Max.-Head-Change                         Max.-Flux-Residual
  Residual-Control   Outer-Iter.   Inner-Iter.     Column Row Layer    Maximum-Head-Change  Column Row Layer    Maximum-Flux-Residual          L2-NORM 
          0                 1           2             7    6     1      -0.2886170234E+00       7    6    1        -0.1573397832E+02      0.1583651985E+02
          0                 2           2             7    6     1       0.3168832434E+00       7    6    1         0.1744778779E+02      0.1745264778E+02
          0                 3           2             7    6     1      -0.1817197937E-01       7    6    1        -0.1010436595E+01      0.1026115401E+01
          0                 4           2             7    6     1      -0.3210098753E-02       7    6    1        -0.1783330711E+00      0.1896159978E+00
          0                 5           2             7    6     1      -0.5677889239E-03       7    6    1        -0.3151684895E-01      0.4232236039E-01
          0                 6           1             8    2     1       0.1012219092E-03       7    6    1        -0.5576827076E-02      0.1380266699E-01
          0                 7           1             8    2     1       0.4550150195E-04       8    2    1         0.1181534496E-02      0.5737195344E-02
          0                 8           1             8    2     1       0.2045392030E-04       8    2    1         0.5311259816E-03      0.2536229663E-02
          0                 9           1             8    2     1       0.9194476878E-05       8    2    1         0.2387527135E-03      0.1133500746E-02

    ------------------------------------------------
       NWT REQUIRED            9 OUTER ITERATIONS 
       AND A TOTAL OF         14 INNER ITERATIONS.
    ------------------------------------------------

 NO OUTPUT CONTROL FOR STRESS PERIOD   17   TIME STEP   27
 
 SOLVING FOR HEAD 
                                                   Max.-Head-Change                         Max.-Flux-Residual
  Residual-Control   Outer-Iter.   Inner-Iter.     Column Row Layer    Maximum-Head-Change  Column Row Layer    Maximum-Flux-Residual          L2-NORM 
          0                 1           2             7    6     1      -0.2886206794E+00       7    6    1        -0.1573419071E+02      0.1583650601E+02
          0                 2           2             7    6     1       0.3168828238E+00       7    6    1         0.1744777896E+02      0.1745263365E+02
          0                 3           2             7    6     1      -0.1817247067E-01       7    6    1        -0.1010464476E+01      0.1026130850E+01
          0                 4           2             7    6     1      -0.3210183055E-02       7    6    1        -0.1783378538E+00      0.1896090858E+00
          0                 5           2             7    6     1      -0.5678033987E-03       7    6    1        -0.3151766981E-01      0.4231287383E-01
          0                 6           1             8    2     1       0.1011836666E-03       7    6    1        -0.5576967997E-02      0.1379652339E-01
          0                 7           1             8    2     1       0.4548429507E-04       8    2    1         0.1181088023E-02      0.5734227140E-02
          0                 8           1             8    2     1       0.2044617811E-04       8    2    1         0.5309250890E-03      0.2534884994E-02
          0                 9           1             8    2     1       0.9190993081E-05       8    2    1         0.2386623195E-03      0.1132897022E-02

    ------------------------------------------------
       NWT REQUIRED            9 OUTER ITERATIONS 
       AND A TOTAL OF         14 INNER ITERATIONS.
    ------------------------------------------------

 NO OUTPUT CONTROL FOR STRESS PERIOD   17   TIME STEP   28
 
 SOLVING FOR HEAD 
                                                   Max.-Head-Change                         Max.-Flux-Residual
  Residual-Control   Outer-Iter.   Inner-Iter.     Column Row Layer    Maximum-Head-Change  Column Row Layer    Maximum-Flux-Residual          L2-NORM 
          0                 1           2             7    6     1      -0.2886242222E+00       7    6    1        -0.1573439689E+02      0.1583651973E+02
          0                 2           2             7    6     1       0.3168824154E+00       7    6    1         0.1744777078E+02      0.1745262083E+02
          0                 3           2             7    6     1      -0.1817295340E-01       7    6    1        -0.1010491893E+01      0.1026147245E+01
          0                 4           2             7    6     1      -0.3210265789E-02       7    6    1        -0.1783425513E+00      0.1896035262E+00
          0                 5           2             7    6     1      -0.5678175867E-03       7    6    1        -0.3151847508E-01      0.4230464958E-01
          0                 6           1             8    2     1       0.1011454407E-03       7    6    1        -0.5577106104E-02      0.1379116119E-01
          0                 7           1             8    2     1       0.4546709443E-04       8    2    1         0.1180641741E-02      0.5731617582E-02
          0                 8           1             8    2     1       0.2043843868E-04       8    2    1         0.5307242806E-03      0.2533700442E-02
          0                 9           1             8    2     1       0.9187510535E-05       8    2    1         0.2385719639E-03      0.1132163077E-02

    ------------------------------------------------
       NWT REQUIRED            9 OUTER ITERATIONS 
       AND A TOTAL OF         14 INNER ITERATIONS.
    ------------------------------------------------

 NO OUTPUT CONTROL FOR STRESS PERIOD   17   TIME STEP   29
 
 SOLVING FOR HEAD 
                                                   Max.-Head-Change                         Max.-Flux-Residual
  Residual-Control   Outer-Iter.   Inner-Iter.     Column Row Layer    Maximum-Head-Change  Column Row Layer    Maximum-Flux-Residual          L2-NORM 
          0                 1           2             7    6     1      -0.2886275441E+00       7    6    1        -0.1573459096E+02      0.1583653670E+02
          0                 2           2             7    6     1       0.3168820064E+00       7    6    1         0.1744776259E+02      0.1745260844E+02
          0                 3           2             7    6     1      -0.1817340054E-01       7    6    1        -0.1010517345E+01      0.1026162432E+01
          0                 4           2             7    6     1      -0.3210342174E-02       7    6    1        -0.1783468981E+00      0.1895982350E+00
          0                 5           2             7    6     1      -0.5678306427E-03       7    6    1        -0.3151921779E-01      0.4229686354E-01
          0                 6           1             8    2     1       0.1011072495E-03       7    6    1        -0.5577233032E-02      0.1378608807E-01
          0                 7           1             8    2     1       0.4544991080E-04       8    2    1         0.1180195871E-02      0.5729177941E-02
          0                 8           1             8    2     1       0.2043070687E-04       8    2    1         0.5305236638E-03      0.2532566429E-02
          0                 9           1             8    2     1       0.9184031991E-05       8    2    1         0.2384817007E-03      0.1131851197E-02

    ------------------------------------------------
       NWT REQUIRED            9 OUTER ITERATIONS 
       AND A TOTAL OF         14 INNER ITERATIONS.
    ------------------------------------------------

 NO OUTPUT CONTROL FOR STRESS PERIOD   17   TIME STEP   30



 STREAM LISTING     PERIOD     17   STEP       30

 LAYER ROW COL. STREAM  RCH.  FLOW INTO     FLOW TO   FLOW OUT OF   OVRLND.     DIRECT     STREAM       STREAM     STREAM     STREAM   STREAMBED  STREAMBED
                SEG.NO.  NO.  STRM. RCH.    AQUIFER    STRM. RCH.    RUNOFF     PRECIP       ET          HEAD       DEPTH      WIDTH   CONDCTNC.   GRADIENT

   1    1    1     1     1    3.5000E+01  2.8629E-11   3.5000E+01  0.000E+00  0.000E+00  0.000E+00  1.09434E+03  1.292E+00  1.482E+01  6.670E-12  1.431E+00
   1    2    2     1     2    3.5000E+01  4.4488E-11   3.5000E+01  0.000E+00  0.000E+00  0.000E+00  1.08935E+03  1.292E+00  1.481E+01  1.037E-11  1.431E+00
   1    3    3     1     3    3.5000E+01  3.8148E-11   3.5000E+01  0.000E+00  0.000E+00  0.000E+00  1.08371E+03  1.292E+00  1.481E+01  8.888E-12  1.431E+00
   1    3    4     1     4    3.5000E+01  3.5294E-11   3.5000E+01  0.000E+00  0.000E+00  0.000E+00  1.07870E+03  1.292E+00  1.482E+01  8.223E-12  1.431E+00
   1    4    5     2     1    3.3000E+01  3.4491E-01   3.2655E+01  0.000E+00  0.000E+00  0.000E+00  1.07336E+03  1.422E+00  1.200E+01  7.800E-02  1.474E+00
   1    5    6     2     2    3.2655E+01  2.6484E-01   3.2390E+01  0.000E+00  0.000E+00  0.000E+00  1.06792E+03  1.414E+00  1.200E+01  6.000E-02  1.471E+00
   1    6    6     2     3    3.2390E+01  2.6443E-01   3.2126E+01  0.000E+00  0.000E+00  0.000E+00  1.06320E+03  1.407E+00  1.200E+01  6.000E-02  1.469E+00
   1    7    6     2     4    3.2126E+01  2.6401E-01   3.1862E+01  0.000E+00  0.000E+00  0.000E+00  1.05848E+03  1.400E+00  1.200E+01  6.000E-02  1.467E+00
   1    8    6     2     5    3.1862E+01  2.6359E-01   3.1598E+01  0.000E+00  0.000E+00  0.000E+00  1.05375E+03  1.393E+00  1.200E+01  6.000E-02  1.464E+00
   1    3    5     3     1    2.0000E+00  2.8252E-01   1.7175E+00  0.000E+00  0.000E+00  0.000E+00  1.07555E+03  1.909E+00  9.636E+00  7.227E-02  1.955E+00
   1    3    6     3     2    1.7175E+00  2.4905E-01   1.4684E+00  0.000E+00  0.000E+00  0.000E+00  1.07264E+03  1.727E+00  8.909E+00  6.682E-02  1.864E+00
   1    3    7     3     3    1.4684E+00  1.9718E-01   1.2712E+00  0.000E+00  0.000E+00  0.000E+00  1.06987E+03  1.555E+00  8.218E+00  5.547E-02  1.777E+00
   1    4    8     3     4    1.2712E+00  2.2567E-01   1.0456E+00  0.000E+00  0.000E+00  0.000E+00  1.06682E+03  1.364E+00  7.455E+00  6.709E-02  1.682E+00
   1    5    8     3     5    1.0456E+00  1.5790E-01   8.8768E-01  0.000E+00  0.000E+00  0.000E+00  1.06362E+03  1.164E+00  6.655E+00  4.991E-02  1.582E+00
   1    6    8     3     6    8.8768E-01  5.5980E-02   8.3170E-01  0.000E+00  0.000E+00  0.000E+00  1.06158E+03  1.036E+00  6.145E+00  1.844E-02  1.518E+00
   1    5   10     4     1    1.0000E+01  9.0919E-02   9.9091E+00  0.000E+00  0.000E+00  0.000E+00  1.07836E+03  6.368E-01  1.000E+01  2.500E-02  1.212E+00
   1    5    9     4     2    9.9091E+00  1.8158E-01   9.7275E+00  0.000E+00  0.000E+00  0.000E+00  1.07154E+03  6.315E-01  1.000E+01  5.000E-02  1.211E+00
   1    6    8     4     3    9.7275E+00  1.2689E-01   9.6006E+00  0.000E+00  0.000E+00  0.000E+00  1.06381E+03  6.256E-01  1.000E+01  3.500E-02  1.209E+00
   1    6    8     5     1    1.0432E+01  2.2686E-09   1.0432E+01  0.000E+00  0.000E+00  0.000E+00  1.05868E+03  6.790E-01  1.542E+01  6.166E-10  1.226E+00
   1    7    7     5     2    1.0432E+01  2.8306E-09   1.0432E+01  0.000E+00  0.000E+00  0.000E+00  1.05418E+03  6.784E-01  1.539E+01  7.695E-10  1.226E+00
   1    8    7     5     3    1.0432E+01  1.9868E-09   1.0432E+01  0.000E+00  0.000E+00  0.000E+00  1.04993E+03  6.794E-01  1.543E+01  5.400E-10  1.226E+00
   1    8    6     5     4    1.0432E+01  1.4217E-09   1.0432E+01  0.000E+00  0.000E+00  0.000E+00  1.04693E+03  6.800E-01  1.545E+01  3.863E-10  1.227E+00
   1    9    6     6     1    4.2031E+01  2.7986E-01   4.1751E+01  0.000E+00  0.000E+00  0.000E+00  1.04439E+03  1.664E+00  1.200E+01  6.000E-02  1.555E+00
   1   10    7     6     2    4.1751E+01  2.7946E-01   4.1471E+01  0.000E+00  0.000E+00  0.000E+00  1.03984E+03  1.658E+00  1.200E+01  6.000E-02  1.553E+00
   1   11    7     6     3    4.1471E+01  2.7906E-01   4.1192E+01  0.000E+00  0.000E+00  0.000E+00  1.03529E+03  1.651E+00  1.200E+01  6.000E-02  1.550E+00
   1   12    7     6     4    4.1192E+01  2.7866E-01   4.0913E+01  0.000E+00  0.000E+00  0.000E+00  1.03074E+03  1.644E+00  1.200E+01  6.000E-02  1.548E+00
   1   13    7     6     5    4.0913E+01  1.1135E-01   4.0802E+01  0.000E+00  0.000E+00  0.000E+00  1.02755E+03  1.640E+00  1.200E+01  2.400E-02  1.547E+00
   1   14    9     7     1    1.5000E+02  2.9539E-08   1.5000E+02  0.000E+00  0.000E+00  0.000E+00  1.03986E+03  2.283E+00  5.528E+01  5.591E-09  1.761E+00
   1   13    8     7     2    1.5000E+02  3.2486E-14   1.5000E+02  0.000E+00  0.000E+00  0.000E+00  1.03478E+03  2.283E+00  5.527E+01  6.150E-15  1.761E+00
   1   13    7     7     3    1.5000E+02  2.9539E-08   1.5000E+02  0.000E+00  0.000E+00  0.000E+00  1.02970E+03  2.283E+00  5.528E+01  5.591E-09  1.761E+00
   1   13    6     8     1    1.9080E+02  0.0000E+00   1.9080E+02  0.000E+00  0.000E+00  0.000E+00  1.02496E+03  3.083E+00  4.470E+01  0.000E+00  2.028E+00
   1   13    5     8     2    1.9080E+02  2.7595E-16   1.9080E+02  0.000E+00  0.000E+00  0.000E+00  1.01870E+03  3.074E+00  4.458E+01  4.543E-17  2.025E+00
   1   13    4     8     3    1.9080E+02  1.8646E-16   1.9080E+02  0.000E+00  0.000E+00  0.000E+00  1.01245E+03  3.077E+00  4.462E+01  4.547E-17  1.367E+00
   1   13    3     8     4    1.9080E+02  2.3667E-05   1.9080E+02  0.000E+00  0.000E+00  0.000E+00  1.00621E+03  3.082E+00  4.469E+01  4.554E-05  1.732E-01
   1   13    2     8     5    1.9080E+02 -1.6926E+00   1.9249E+02  0.000E+00  0.000E+00  0.000E+00  9.99963E+02  3.088E+00  4.477E+01  4.563E+00 -1.237E-01
   1   13    1     8     6    1.9249E+02 -1.9006E+00   1.9440E+02  0.000E+00  0.000E+00  0.000E+00  9.94974E+02  3.099E+00  4.493E+01  2.747E+00 -2.306E-01
   1    6    8     9     1    0.0000E+00  0.0000E+00   0.0000E+00  0.000E+00  0.000E+00  0.000E+00  1.07850E+03  0.000E+00  4.000E+00  0.000E+00  1.000E+00





UNSATURATED ZONE PACKAGE VOLUMETRIC BUDGET FOR  TIME STEP    30 STRESS PERIOD   17
  ------------------------------------------------------------------------------



     CUMULATIVE VOLUMES      L**3       RATES FOR THIS TIME STEP      L**3/T
     ------------------                 ------------------------

           IN:                                      IN:
           ---                                      ---
        INFILTRATION =    67909473.1201          INFILTRATION =           0.8475

          OUT:                                     OUT:
          ----                                     ----
              UZF ET =   566527448.0971                UZF ET =           0.8407
        UZF RECHARGE =  1128052012.7747          UZF RECHARGE =          25.0770

            IN - OUT = -1626669987.7517              IN - OUT =         -25.0702

          STORAGE:                                 STORAGE:
          --------                                 --------
      STORAGE CHANGE = -1626662200.0735        STORAGE CHANGE =         -25.0702

 PERCENT DISCREPANCY IS DIFFERENCE BETWEEN IN-OUT MINUS CHANGE IN STORAGE
 DIVIDED BY THE AVERAGE OF IN AND OUT TIMES 100

 PERCENT DISCREPANCY =          -0.00     PERCENT DISCREPANCY =           0.00






1
  VOLUMETRIC BUDGET FOR ENTIRE MODEL AT END OF TIME STEP   30, STRESS PERIOD  17
  ------------------------------------------------------------------------------

     CUMULATIVE VOLUMES      L**3       RATES FOR THIS TIME STEP      L**3/T
     ------------------                 ------------------------

           IN:                                      IN:
           ---                                      ---
             STORAGE =    18217006.0000               STORAGE =           0.2368
       CONSTANT HEAD =           0.0000         CONSTANT HEAD =           0.0000
               WELLS =           0.0000                 WELLS =           0.0000
     HEAD DEP BOUNDS =    46238932.0000       HEAD DEP BOUNDS =           0.9955
      STREAM LEAKAGE =   176755552.0000        STREAM LEAKAGE =           4.1979
        UZF RECHARGE =  1128052096.0000          UZF RECHARGE =          25.0770
               GW ET =           0.0000                 GW ET =           0.0000
     SURFACE LEAKAGE =           0.0000       SURFACE LEAKAGE =           0.0000

            TOTAL IN =  1369263616.0000              TOTAL IN =          30.5072

          OUT:                                     OUT:
          ----                                     ----
             STORAGE =  1202714880.0000               STORAGE =          26.2522
       CONSTANT HEAD =           0.0000         CONSTANT HEAD =           0.0000
               WELLS =     1059111.1250                 WELLS =           0.0000
     HEAD DEP BOUNDS =    12737870.0000       HEAD DEP BOUNDS =           0.2913
      STREAM LEAKAGE =   113976816.0000        STREAM LEAKAGE =           3.5932
        UZF RECHARGE =           0.0000          UZF RECHARGE =           0.0000
               GW ET =    38645920.0000                 GW ET =           0.3668
     SURFACE LEAKAGE =           0.0000       SURFACE LEAKAGE =           0.0000

           TOTAL OUT =  1369134592.0000             TOTAL OUT =          30.5034

            IN - OUT =      129024.0000              IN - OUT =       3.7136E-03

 PERCENT DISCREPANCY =           0.01     PERCENT DISCREPANCY =           0.01






         TIME SUMMARY AT END OF TIME STEP   30 IN STRESS PERIOD   17
                    SECONDS     MINUTES      HOURS       DAYS        YEARS
                    -----------------------------------------------------------
   TIME STEP LENGTH  87600.      1460.0      24.333      1.0139     2.77588E-03
 STRESS PERIOD TIME 2.62800E+06  43800.      730.00      30.417     8.32763E-02
         TOTAL TIME 4.46760E+07 7.44600E+05  12410.      517.08      1.4157    
1
1
                            STRESS PERIOD NO.   18, LENGTH =   2628000.    
                            -----------------------------------------------

                              NUMBER OF TIME STEPS =    30

                               MULTIPLIER FOR DELT =     1.000

                            INITIAL TIME STEP SIZE =   87600.00    

 WELL NO.  LAYER   ROW   COL   STRESS RATE         
 --------------------------------------------------
      1      1      6      4       0.000    
      2      1      6      7       0.000    
      3      1      7      4       0.000    
      4      1      7      5       0.000    
      5      1      8      4       0.000    
      6      1      8      5       0.000    
      7      1      9      4       0.000    
      8      1      9      5       0.000    
      9      1     10      4       0.000    
     10      1     10      5       0.000    

     10 WELLS

 REUSING NON-PARAMETER GHB CELLS FROM LAST STRESS PERIOD

      2 GHB CELLS

 REUSING STREAM SEGMENT DATA FROM LAST STRESS PERIOD



            AREAL INFILTRATION RATE
 READING ON UNIT   19 WITH FORMAT: (10F4.0)            

            1           2           3           4           5           6           7           8           9          10
 ........................................................................................................................
   1   1.0000E-10  2.0000E-10   0.000       0.000       0.000       0.000       0.000       0.000       0.000       0.000    
   2   2.0000E-10  1.0000E-10  2.0000E-10   0.000       0.000      8.0000E-10  8.0000E-10  5.0000E-10   0.000       0.000    
   3    0.000      5.0000E-10  1.0000E-10  1.0000E-10  8.0000E-10  8.0000E-10  5.0000E-10  5.0000E-10   0.000       0.000    
   4   8.0000E-10  5.0000E-10  1.0000E-10  1.0000E-10  1.0000E-10  1.0000E-10  1.0000E-10  1.0000E-10  2.0000E-10   0.000    
   5   8.0000E-10  5.0000E-10  1.0000E-10  1.0000E-10  1.0000E-10  1.0000E-10  1.0000E-10  1.0000E-10  1.0000E-10  1.0000E-10
   6   8.0000E-10  5.0000E-10  5.0000E-10  2.0000E-10  2.0000E-10  1.0000E-10  1.0000E-10  1.0000E-10  1.0000E-10  5.0000E-10
   7   8.0000E-10  5.0000E-10  5.0000E-10  2.0000E-10  2.0000E-10  1.0000E-10  1.0000E-10  2.0000E-10  2.0000E-10   0.000    
   8    0.000      5.0000E-10  5.0000E-10  2.0000E-10  2.0000E-10  1.0000E-10  1.0000E-10  2.0000E-10  5.0000E-10   0.000    
   9    0.000      5.0000E-10  5.0000E-10  2.0000E-10  2.0000E-10  1.0000E-10  1.0000E-10  2.0000E-10  5.0000E-10   0.000    
  10    0.000      5.0000E-10  5.0000E-10  2.0000E-10  2.0000E-10  1.0000E-10  1.0000E-10  2.0000E-10  5.0000E-10  8.0000E-10
  11    0.000      1.0000E-10  1.0000E-10  1.0000E-10  1.0000E-10  1.0000E-10  1.0000E-10  2.0000E-10  5.0000E-10   0.000    
  12   1.0000E-10  1.0000E-10  1.0000E-10  1.0000E-10  1.0000E-10  1.0000E-10  1.0000E-10  1.0000E-10  2.0000E-10   0.000    
  13   1.0000E-10  1.0000E-10  2.0000E-10  2.0000E-10  2.0000E-10  2.0000E-10  2.0000E-10  1.0000E-10  1.0000E-10   0.000    
  14    0.000      2.0000E-10  5.0000E-10  5.0000E-10  5.0000E-10  5.0000E-10  5.0000E-10  2.0000E-10  1.0000E-10   0.000    
  15    0.000       0.000      8.0000E-10  8.0000E-10  8.0000E-10  8.0000E-10   0.000       0.000       0.000       0.000    

                  ET RATE =  1.000000E-08

 USING ET EXTINCTION DEPTH FROM PREVIOUS STRESS PERIOD. CURRENT PERIOD IS:      18

 USING EXTINCTION WATER CONTENT FROM PREVIOUS STRESS PERIOD. CURRENT PERIOD IS:      18
 
 SOLVING FOR HEAD 
                                                   Max.-Head-Change                         Max.-Flux-Residual
  Residual-Control   Outer-Iter.   Inner-Iter.     Column Row Layer    Maximum-Head-Change  Column Row Layer    Maximum-Flux-Residual          L2-NORM 
          0                 1           2             7    6     1      -0.2886238757E+00       7    6    1        -0.1573476742E+02      0.1584188510E+02
          0                 2           2             7    6     1       0.3168838250E+00       7    6    1         0.1744780697E+02      0.1745274603E+02
          0                 3           2             7    6     1      -0.1817246978E-01       7    6    1        -0.1010477899E+01      0.1026207187E+01
          0                 4           2             7    6     1      -0.3210117672E-02       7    6    1        -0.1783365509E+00      0.1895908930E+00
          0                 5           2             7    6     1      -0.5677805673E-03       7    6    1        -0.3151680421E-01      0.4228734279E-01
          0                 6           1             8    2     1       0.1010690761E-03       7    6    1        -0.5576708038E-02      0.1378031871E-01
          0                 7           1             8    2     1       0.4543273430E-04       8    2    1         0.1179750205E-02      0.5726338187E-02
          0                 8           1             8    2     1       0.2042297844E-04       8    2    1         0.5303231364E-03      0.2531284106E-02
          0                 9           1             8    2     1       0.9180554572E-05       8    2    1         0.2383914722E-03      0.1131067858E-02

    ------------------------------------------------
       NWT REQUIRED            9 OUTER ITERATIONS 
       AND A TOTAL OF         14 INNER ITERATIONS.
    ------------------------------------------------

 NO OUTPUT CONTROL FOR STRESS PERIOD   18   TIME STEP    1
 
 SOLVING FOR HEAD 
                                                   Max.-Head-Change                         Max.-Flux-Residual
  Residual-Control   Outer-Iter.   Inner-Iter.     Column Row Layer    Maximum-Head-Change  Column Row Layer    Maximum-Flux-Residual          L2-NORM 
          0                 1           2             7    6     1      -0.2886162775E+00       7    6    1        -0.1573448668E+02      0.1584679578E+02
          0                 2           2             7    6     1       0.3168844254E+00       7    6    1         0.1744783266E+02      0.1745283429E+02
          0                 3           2             7    6     1      -0.1817131355E-01       7    6    1        -0.1010418818E+01      0.1026179921E+01
          0                 4           2             7    6     1      -0.3209888333E-02       7    6    1        -0.1783247002E+00      0.1895768183E+00
          0                 5           2             7    6     1      -0.5677357179E-03       7    6    1        -0.3151446658E-01      0.4227920842E-01
          0                 6           1             8    2     1       0.1010309282E-03       7    6    1        -0.5576253887E-02      0.1377584304E-01
          0                 7           1             8    2     1       0.4541556968E-04       8    2    1         0.1179304839E-02      0.5724219686E-02
          0                 8           1             8    2     1       0.2041525526E-04       8    2    1         0.5301227404E-03      0.2530315301E-02
          0                 9           1             8    2     1       0.9177079404E-05       8    2    1         0.2383013020E-03      0.1130627965E-02

    ------------------------------------------------
       NWT REQUIRED            9 OUTER ITERATIONS 
       AND A TOTAL OF         14 INNER ITERATIONS.
    ------------------------------------------------

 NO OUTPUT CONTROL FOR STRESS PERIOD   18   TIME STEP    2
 
 SOLVING FOR HEAD 
                                                   Max.-Head-Change                         Max.-Flux-Residual
  Residual-Control   Outer-Iter.   Inner-Iter.     Column Row Layer    Maximum-Head-Change  Column Row Layer    Maximum-Flux-Residual          L2-NORM 
          0                 1           2             7    6     1      -0.2886085082E+00       7    6    1        -0.1573407400E+02      0.1584523541E+02
          0                 2           2             7    6     1       0.3168843602E+00       7    6    1         0.1744784580E+02      0.1745283499E+02
          0                 3           2             7    6     1      -0.1817029010E-01       7    6    1        -0.1010363390E+01      0.1026119018E+01
          0                 4           2             7    6     1      -0.3209700797E-02       7    6    1        -0.1783145255E+00      0.1895603032E+00
          0                 5           2             7    6     1      -0.5677014389E-03       7    6    1        -0.3151260402E-01      0.4227141869E-01
          0                 6           1             8    2     1       0.1009919938E-03       7    6    1        -0.5575913791E-02      0.1377169309E-01
          0                 7           1             8    2     1       0.4539805203E-04       8    2    1         0.1178850292E-02      0.5722239771E-02
          0                 8           1             8    2     1       0.2040737364E-04       8    2    1         0.5299182313E-03      0.2529407272E-02
          0                 9           1             8    2     1       0.9173533330E-05       8    2    1         0.2382092913E-03      0.1130214772E-02

    ------------------------------------------------
       NWT REQUIRED            9 OUTER ITERATIONS 
       AND A TOTAL OF         14 INNER ITERATIONS.
    ------------------------------------------------

 NO OUTPUT CONTROL FOR STRESS PERIOD   18   TIME STEP    3
 
 SOLVING FOR HEAD 
                                                   Max.-Head-Change                         Max.-Flux-Residual
  Residual-Control   Outer-Iter.   Inner-Iter.     Column Row Layer    Maximum-Head-Change  Column Row Layer    Maximum-Flux-Residual          L2-NORM 
          0                 1           2             7    6     1      -0.2886011652E+00       7    6    1        -0.1573368422E+02      0.1584388895E+02
          0                 2           2             7    6     1       0.3168842817E+00       7    6    1         0.1744785821E+02      0.1745283674E+02
          0                 3           2             7    6     1      -0.1816932562E-01       7    6    1        -0.1010311199E+01      0.1026060991E+01
          0                 4           2             7    6     1      -0.3209523875E-02       7    6    1        -0.1783049338E+00      0.1895436443E+00
          0                 5           2             7    6     1      -0.5676690671E-03       7    6    1        -0.3151084630E-01      0.4226298016E-01
          0                 6           1             8    2     1       0.1009538977E-03       7    6    1        -0.5575592495E-02      0.1376705429E-01
          0                 7           1             8    2     1       0.4538091041E-04       8    2    1         0.1178405532E-02      0.5720001221E-02
          0                 8           1             8    2     1       0.2039966121E-04       8    2    1         0.5297181127E-03      0.2528375893E-02
          0                 9           1             8    2     1       0.9170062789E-05       8    2    1         0.2381192426E-03      0.1129742632E-02

    ------------------------------------------------
       NWT REQUIRED            9 OUTER ITERATIONS 
       AND A TOTAL OF         14 INNER ITERATIONS.
    ------------------------------------------------

 NO OUTPUT CONTROL FOR STRESS PERIOD   18   TIME STEP    4
 
 SOLVING FOR HEAD 
                                                   Max.-Head-Change                         Max.-Flux-Residual
  Residual-Control   Outer-Iter.   Inner-Iter.     Column Row Layer    Maximum-Head-Change  Column Row Layer    Maximum-Flux-Residual          L2-NORM 
          0                 1           2             7    6     1      -0.2885943394E+00       7    6    1        -0.1573332267E+02      0.1584270805E+02
          0                 2           2             7    6     1       0.3168842036E+00       7    6    1         0.1744787057E+02      0.1745283832E+02
          0                 3           2             7    6     1      -0.1816844375E-01       7    6    1        -0.1010263567E+01      0.1026004769E+01
          0                 4           2             7    6     1      -0.3209361701E-02       7    6    1        -0.1782961562E+00      0.1895255037E+00
          0                 5           2             7    6     1      -0.5676393280E-03       7    6    1        -0.3150923392E-01      0.4225296630E-01
          0                 6           1             8    2     1       0.1009158327E-03       7    6    1        -0.5575297137E-02      0.1376154735E-01
          0                 7           1             8    2     1       0.4536378356E-04       8    2    1         0.1177961133E-02      0.5717406224E-02
          0                 8           1             8    2     1       0.2039195467E-04       8    2    1         0.5295181558E-03      0.2527208712E-02
          0                 9           1             8    2     1       0.9166595749E-05       8    2    1         0.2380292789E-03      0.1129226679E-02

    ------------------------------------------------
       NWT REQUIRED            9 OUTER ITERATIONS 
       AND A TOTAL OF         14 INNER ITERATIONS.
    ------------------------------------------------

 NO OUTPUT CONTROL FOR STRESS PERIOD   18   TIME STEP    5
 
 SOLVING FOR HEAD 
                                                   Max.-Head-Change                         Max.-Flux-Residual
  Residual-Control   Outer-Iter.   Inner-Iter.     Column Row Layer    Maximum-Head-Change  Column Row Layer    Maximum-Flux-Residual          L2-NORM 
          0                 1           2             7    6     1      -0.2885880008E+00       7    6    1        -0.1573298754E+02      0.1584170751E+02
          0                 2           2             7    6     1       0.3168841248E+00       7    6    1         0.1744788286E+02      0.1745284255E+02
          0                 3           2             7    6     1      -0.1816763980E-01       7    6    1        -0.1010220231E+01      0.1025955646E+01
          0                 4           2             7    6     1      -0.3209213460E-02       7    6    1        -0.1782881470E+00      0.1895104853E+00
          0                 5           2             7    6     1      -0.5676120788E-03       7    6    1        -0.3150775891E-01      0.4224498131E-01
          0                 6           1             8    2     1       0.1008769820E-03       7    6    1        -0.5575026322E-02      0.1375713343E-01
          0                 7           1             8    2     1       0.4534630405E-04       8    2    1         0.1177507567E-02      0.5715292236E-02
          0                 8           1             8    2     1       0.2038409055E-04       8    2    1         0.5293140930E-03      0.2526445897E-02
          0                 9           1             8    2     1       0.9163057429E-05       8    2    1         0.2379374694E-03      0.1129334086E-02

    ------------------------------------------------
       NWT REQUIRED            9 OUTER ITERATIONS 
       AND A TOTAL OF         14 INNER ITERATIONS.
    ------------------------------------------------

 NO OUTPUT CONTROL FOR STRESS PERIOD   18   TIME STEP    6
 
 SOLVING FOR HEAD 
                                                   Max.-Head-Change                         Max.-Flux-Residual
  Residual-Control   Outer-Iter.   Inner-Iter.     Column Row Layer    Maximum-Head-Change  Column Row Layer    Maximum-Flux-Residual          L2-NORM 
          0                 1           2             7    6     1      -0.2885821224E+00       7    6    1        -0.1573267737E+02      0.1584075310E+02
          0                 2           2             7    6     1       0.3168840450E+00       7    6    1         0.1744789506E+02      0.1745284112E+02
          0                 3           2             7    6     1      -0.1816690919E-01       7    6    1        -0.1010180937E+01      0.1025901651E+01
          0                 4           2             7    6     1      -0.3209078337E-02       7    6    1        -0.1782808611E+00      0.1894893139E+00
          0                 5           2             7    6     1      -0.5675871760E-03       7    6    1        -0.3150641325E-01      0.4223177556E-01
          0                 6           1             8    2     1       0.1008381579E-03       7    6    1        -0.5574778618E-02      0.1374978506E-01
          0                 7           1             8    2     1       0.4532883667E-04       8    2    1         0.1177054315E-02      0.5711893067E-02
          0                 8           1             8    2     1       0.2037623181E-04       8    2    1         0.5291101665E-03      0.2524741572E-02
          0                 9           1             8    2     1       0.9159521609E-05       8    2    1         0.2378457184E-03      0.1128127863E-02

    ------------------------------------------------
       NWT REQUIRED            9 OUTER ITERATIONS 
       AND A TOTAL OF         14 INNER ITERATIONS.
    ------------------------------------------------

 NO OUTPUT CONTROL FOR STRESS PERIOD   18   TIME STEP    7
 
 SOLVING FOR HEAD 
                                                   Max.-Head-Change                         Max.-Flux-Residual
  Residual-Control   Outer-Iter.   Inner-Iter.     Column Row Layer    Maximum-Head-Change  Column Row Layer    Maximum-Flux-Residual          L2-NORM 
          0                 1           2             7    6     1      -0.2885766753E+00       7    6    1        -0.1573239076E+02      0.1583985267E+02
          0                 2           2             7    6     1       0.3168839650E+00       7    6    1         0.1744790720E+02      0.1745284291E+02
          0                 3           2             7    6     1      -0.1816624703E-01       7    6    1        -0.1010145422E+01      0.1025857285E+01
          0                 4           2             7    6     1      -0.3208955439E-02       7    6    1        -0.1782742499E+00      0.1894745341E+00
          0                 5           2             7    6     1      -0.5675644547E-03       7    6    1        -0.3150518806E-01      0.4222348567E-01
          0                 6           1             8    2     1       0.1008001841E-03       7    6    1        -0.5574552431E-02      0.1374519801E-01
          0                 7           1             8    2     1       0.4531175121E-04       8    2    1         0.1176610985E-02      0.5709720730E-02
          0                 8           1             8    2     1       0.2036854452E-04       8    2    1         0.5289106970E-03      0.2523758463E-02
          0                 9           1             8    2     1       0.9156063198E-05       8    2    1         0.2377559708E-03      0.1127686052E-02

    ------------------------------------------------
       NWT REQUIRED            9 OUTER ITERATIONS 
       AND A TOTAL OF         14 INNER ITERATIONS.
    ------------------------------------------------

 NO OUTPUT CONTROL FOR STRESS PERIOD   18   TIME STEP    8
 
 SOLVING FOR HEAD 
                                                   Max.-Head-Change                         Max.-Flux-Residual
  Residual-Control   Outer-Iter.   Inner-Iter.     Column Row Layer    Maximum-Head-Change  Column Row Layer    Maximum-Flux-Residual          L2-NORM 
          0                 1           2             7    6     1      -0.2885716364E+00       7    6    1        -0.1573212619E+02      0.1583910487E+02
          0                 2           2             7    6     1       0.3168838832E+00       7    6    1         0.1744791923E+02      0.1745284689E+02
          0                 3           2             7    6     1      -0.1816564965E-01       7    6    1        -0.1010113474E+01      0.1025818476E+01
          0                 4           2             7    6     1      -0.3208844140E-02       7    6    1        -0.1782682778E+00      0.1894615768E+00
          0                 5           2             7    6     1      -0.5675438102E-03       7    6    1        -0.3150407730E-01      0.4221606962E-01
          0                 6           1             8    2     1       0.1007614104E-03       7    6    1        -0.5574346720E-02      0.1374100649E-01
          0                 7           1             8    2     1       0.4529430571E-04       8    2    1         0.1176158315E-02      0.5707702986E-02
          0                 8           1             8    2     1       0.2036069541E-04       8    2    1         0.5287070297E-03      0.2522833877E-02
          0                 9           1             8    2     1       0.9152531255E-05       8    2    1         0.2376643347E-03      0.1127269983E-02

    ------------------------------------------------
       NWT REQUIRED            9 OUTER ITERATIONS 
       AND A TOTAL OF         14 INNER ITERATIONS.
    ------------------------------------------------

 NO OUTPUT CONTROL FOR STRESS PERIOD   18   TIME STEP    9
 
 SOLVING FOR HEAD 
                                                   Max.-Head-Change                         Max.-Flux-Residual
  Residual-Control   Outer-Iter.   Inner-Iter.     Column Row Layer    Maximum-Head-Change  Column Row Layer    Maximum-Flux-Residual          L2-NORM 
          0                 1           2             7    6     1      -0.2885668636E+00       7    6    1        -0.1573187622E+02      0.1583851752E+02
          0                 2           2             7    6     1       0.3168837894E+00       7    6    1         0.1744793053E+02      0.1745285316E+02
          0                 3           2             7    6     1      -0.1816508438E-01       7    6    1        -0.1010083291E+01      0.1025782797E+01
          0                 4           2             7    6     1      -0.3208738613E-02       7    6    1        -0.1782626229E+00      0.1894492705E+00
          0                 5           2             7    6     1      -0.5675242016E-03       7    6    1        -0.3150302352E-01      0.4220886387E-01
          0                 6           1             8    2     1       0.1007226761E-03       7    6    1        -0.5574151233E-02      0.1373691008E-01
          0                 7           1             8    2     1       0.4527687885E-04       8    2    1         0.1175706110E-02      0.5705728526E-02
          0                 8           1             8    2     1       0.2035285506E-04       8    2    1         0.5285035799E-03      0.2521928694E-02
          0                 9           1             8    2     1       0.9149004064E-05       8    2    1         0.2375728021E-03      0.1126855277E-02

    ------------------------------------------------
       NWT REQUIRED            9 OUTER ITERATIONS 
       AND A TOTAL OF         14 INNER ITERATIONS.
    ------------------------------------------------

 NO OUTPUT CONTROL FOR STRESS PERIOD   18   TIME STEP   10
 
 SOLVING FOR HEAD 
                                                   Max.-Head-Change                         Max.-Flux-Residual
  Residual-Control   Outer-Iter.   Inner-Iter.     Column Row Layer    Maximum-Head-Change  Column Row Layer    Maximum-Flux-Residual          L2-NORM 
          0                 1           2             7    6     1      -0.2885625738E+00       7    6    1        -0.1573165249E+02      0.1583800769E+02
          0                 2           2             7    6     1       0.3168837062E+00       7    6    1         0.1744794239E+02      0.1745286030E+02
          0                 3           2             7    6     1      -0.1816460534E-01       7    6    1        -0.1010057871E+01      0.1025751617E+01
          0                 4           2             7    6     1      -0.3208648461E-02       7    6    1        -0.1782578174E+00      0.1894376521E+00
          0                 5           2             7    6     1      -0.5675073348E-03       7    6    1        -0.3150212118E-01      0.4220168899E-01
          0                 6           1             8    2     1       0.1006847836E-03       7    6    1        -0.5573982725E-02      0.1373277675E-01
          0                 7           1             8    2     1       0.4525982966E-04       8    2    1         0.1175263728E-02      0.5703733396E-02
          0                 8           1             8    2     1       0.2034518378E-04       8    2    1         0.5283045328E-03      0.2521016291E-02
          0                 9           1             8    2     1       0.9145552532E-05       8    2    1         0.2374832438E-03      0.1126444676E-02

    ------------------------------------------------
       NWT REQUIRED            9 OUTER ITERATIONS 
       AND A TOTAL OF         14 INNER ITERATIONS.
    ------------------------------------------------

 NO OUTPUT CONTROL FOR STRESS PERIOD   18   TIME STEP   11
 
 SOLVING FOR HEAD 
                                                   Max.-Head-Change                         Max.-Flux-Residual
  Residual-Control   Outer-Iter.   Inner-Iter.     Column Row Layer    Maximum-Head-Change  Column Row Layer    Maximum-Flux-Residual          L2-NORM 
          0                 1           2             7    6     1      -0.2885585018E+00       7    6    1        -0.1573144082E+02      0.1583755810E+02
          0                 2           2             7    6     1       0.3168836106E+00       7    6    1         0.1744795350E+02      0.1745286711E+02
          0                 3           2             7    6     1      -0.1816414990E-01       7    6    1        -0.1010033748E+01      0.1025721692E+01
          0                 4           2             7    6     1      -0.3208562550E-02       7    6    1        -0.1782532452E+00      0.1894262319E+00
          0                 5           2             7    6     1      -0.5674912282E-03       7    6    1        -0.3150126073E-01      0.4219456086E-01
          0                 6           1             8    2     1       0.1006461097E-03       7    6    1        -0.5573821759E-02      0.1372865119E-01
          0                 7           1             8    2     1       0.4524242993E-04       8    2    1         0.1174812226E-02      0.5701740586E-02
          0                 8           1             8    2     1       0.2033735593E-04       8    2    1         0.5281014067E-03      0.2520100383E-02
          0                 9           1             8    2     1       0.9142030843E-05       8    2    1         0.2373918580E-03      0.1126025148E-02

    ------------------------------------------------
       NWT REQUIRED            9 OUTER ITERATIONS 
       AND A TOTAL OF         14 INNER ITERATIONS.
    ------------------------------------------------

 NO OUTPUT CONTROL FOR STRESS PERIOD   18   TIME STEP   12
 
 SOLVING FOR HEAD 
                                                   Max.-Head-Change                         Max.-Flux-Residual
  Residual-Control   Outer-Iter.   Inner-Iter.     Column Row Layer    Maximum-Head-Change  Column Row Layer    Maximum-Flux-Residual          L2-NORM 
          0                 1           2             7    6     1      -0.2885548680E+00       7    6    1        -0.1573125289E+02      0.1583714950E+02
          0                 2           2             7    6     1       0.3168835249E+00       7    6    1         0.1744796514E+02      0.1745287452E+02
          0                 3           2             7    6     1      -0.1816377332E-01       7    6    1        -0.1010013979E+01      0.1025695893E+01
          0                 4           2             7    6     1      -0.3208490710E-02       7    6    1        -0.1782494498E+00      0.1894155090E+00
          0                 5           2             7    6     1      -0.5674776342E-03       7    6    1        -0.3150053893E-01      0.4218747112E-01
          0                 6           1             8    2     1       0.1006074594E-03       7    6    1        -0.5573685516E-02      0.1372450854E-01
          0                 7           1             8    2     1       0.4522504059E-04       8    2    1         0.1174360999E-02      0.5699735689E-02
          0                 8           1             8    2     1       0.2032953220E-04       8    2    1         0.5278983909E-03      0.2519180912E-02
          0                 9           1             8    2     1       0.9138510655E-05       8    2    1         0.2373005187E-03      0.1125607888E-02

    ------------------------------------------------
       NWT REQUIRED            9 OUTER ITERATIONS 
       AND A TOTAL OF         14 INNER ITERATIONS.
    ------------------------------------------------

 NO OUTPUT CONTROL FOR STRESS PERIOD   18   TIME STEP   13
 
 SOLVING FOR HEAD 
                                                   Max.-Head-Change                         Max.-Flux-Residual
  Residual-Control   Outer-Iter.   Inner-Iter.     Column Row Layer    Maximum-Head-Change  Column Row Layer    Maximum-Flux-Residual          L2-NORM 
          0                 1           2             7    6     1      -0.2885514128E+00       7    6    1        -0.1573107474E+02      0.1583676332E+02
          0                 2           2             7    6     1       0.3168834261E+00       7    6    1         0.1744797601E+02      0.1745287661E+02
          0                 3           2             7    6     1      -0.1816341429E-01       7    6    1        -0.1009995169E+01      0.1025658717E+01
          0                 4           2             7    6     1      -0.3208422050E-02       7    6    1        -0.1782458285E+00      0.1893918514E+00
          0                 5           2             7    6     1      -0.5674646137E-03       7    6    1        -0.3149984858E-01      0.4216802654E-01
          0                 6           1             8    2     1       0.1005688398E-03       7    6    1        -0.5573554951E-02      0.1371234518E-01
          0                 7           1             8    2     1       0.4520766537E-04       8    2    1         0.1173910138E-02      0.5693705963E-02
          0                 8           1             8    2     1       0.2032171486E-04       8    2    1         0.5276955433E-03      0.2516383559E-02
          0                 9           1             8    2     1       0.9134993719E-05       8    2    1         0.2372092564E-03      0.1124329091E-02

    ------------------------------------------------
       NWT REQUIRED            9 OUTER ITERATIONS 
       AND A TOTAL OF         14 INNER ITERATIONS.
    ------------------------------------------------

 NO OUTPUT CONTROL FOR STRESS PERIOD   18   TIME STEP   14
 
 SOLVING FOR HEAD 
                                                   Max.-Head-Change                         Max.-Flux-Residual
  Residual-Control   Outer-Iter.   Inner-Iter.     Column Row Layer    Maximum-Head-Change  Column Row Layer    Maximum-Flux-Residual          L2-NORM 
          0                 1           2             7    6     1      -0.2885482391E+00       7    6    1        -0.1573091205E+02      0.1583629208E+02
          0                 2           2             7    6     1       0.3168833262E+00       7    6    1         0.1744798677E+02      0.1745287782E+02
          0                 3           2             7    6     1      -0.1816309860E-01       7    6    1        -0.1009978753E+01      0.1025624403E+01
          0                 4           2             7    6     1      -0.3208361124E-02       7    6    1        -0.1782426341E+00      0.1893706259E+00
          0                 5           2             7    6     1      -0.5674529733E-03       7    6    1        -0.3149923444E-01      0.4215195104E-01
          0                 6           1             8    2     1       0.1005302628E-03       7    6    1        -0.5573437981E-02      0.1370306472E-01
          0                 7           1             8    2     1       0.4519030992E-04       8    2    1         0.1173459770E-02      0.5689412477E-02
          0                 8           1             8    2     1       0.2031390676E-04       8    2    1         0.5274929284E-03      0.2514503192E-02
          0                 9           1             8    2     1       0.9131481034E-05       8    2    1         0.2371181034E-03      0.1123513587E-02

    ------------------------------------------------
       NWT REQUIRED            9 OUTER ITERATIONS 
       AND A TOTAL OF         14 INNER ITERATIONS.
    ------------------------------------------------

 NO OUTPUT CONTROL FOR STRESS PERIOD   18   TIME STEP   15
 
 SOLVING FOR HEAD 
                                                   Max.-Head-Change                         Max.-Flux-Residual
  Residual-Control   Outer-Iter.   Inner-Iter.     Column Row Layer    Maximum-Head-Change  Column Row Layer    Maximum-Flux-Residual          L2-NORM 
          0                 1           2             7    6     1      -0.2885453299E+00       7    6    1        -0.1573076372E+02      0.1583601331E+02
          0                 2           2             7    6     1       0.3168832243E+00       7    6    1         0.1744799740E+02      0.1745288508E+02
          0                 3           2             7    6     1      -0.1816282383E-01       7    6    1        -0.1009964590E+01      0.1025604235E+01
          0                 4           2             7    6     1      -0.3208307524E-02       7    6    1        -0.1782398435E+00      0.1893609603E+00
          0                 5           2             7    6     1      -0.5674426445E-03       7    6    1        -0.3149869258E-01      0.4214510250E-01
          0                 6           1             8    2     1       0.1004917107E-03       7    6    1        -0.5573333942E-02      0.1369898038E-01
          0                 7           1             8    2     1       0.4517296497E-04       8    2    1         0.1173009690E-02      0.5687424392E-02
          0                 8           1             8    2     1       0.2030610330E-04       8    2    1         0.5272904361E-03      0.2513590057E-02
          0                 9           1             8    2     1       0.9127970226E-05       8    2    1         0.2370270019E-03      0.1123098319E-02

    ------------------------------------------------
       NWT REQUIRED            9 OUTER ITERATIONS 
       AND A TOTAL OF         14 INNER ITERATIONS.
    ------------------------------------------------

 NO OUTPUT CONTROL FOR STRESS PERIOD   18   TIME STEP   16
 
 SOLVING FOR HEAD 
                                                   Max.-Head-Change                         Max.-Flux-Residual
  Residual-Control   Outer-Iter.   Inner-Iter.     Column Row Layer    Maximum-Head-Change  Column Row Layer    Maximum-Flux-Residual          L2-NORM 
          0                 1           2             7    6     1      -0.2885427824E+00       7    6    1        -0.1573063526E+02      0.1583575429E+02
          0                 2           2             7    6     1       0.3168831327E+00       7    6    1         0.1744800854E+02      0.1745289276E+02
          0                 3           2             7    6     1      -0.1816261452E-01       7    6    1        -0.1009954049E+01      0.1025587462E+01
          0                 4           2             7    6     1      -0.3208265570E-02       7    6    1        -0.1782376970E+00      0.1893517749E+00
          0                 5           2             7    6     1      -0.5674343884E-03       7    6    1        -0.3149826533E-01      0.4213823647E-01
          0                 6           1             7    6     1      -0.1004746702E-03       7    6    1        -0.5573250312E-02      0.1369484346E-01
          0                 7           1             8    2     1       0.4515563477E-04       8    2    1         0.1172559991E-02      0.5685409349E-02
          0                 8           1             8    2     1       0.2029830684E-04       8    2    1         0.5270881177E-03      0.2512663654E-02
          0                 9           1             8    2     1       0.9124462293E-05       8    2    1         0.2369359759E-03      0.1122677286E-02

    ------------------------------------------------
       NWT REQUIRED            9 OUTER ITERATIONS 
       AND A TOTAL OF         14 INNER ITERATIONS.
    ------------------------------------------------

 NO OUTPUT CONTROL FOR STRESS PERIOD   18   TIME STEP   17
 
 SOLVING FOR HEAD 
                                                   Max.-Head-Change                         Max.-Flux-Residual
  Residual-Control   Outer-Iter.   Inner-Iter.     Column Row Layer    Maximum-Head-Change  Column Row Layer    Maximum-Flux-Residual          L2-NORM 
          0                 1           2             7    6     1      -0.2885403417E+00       7    6    1        -0.1573051259E+02      0.1583553058E+02
          0                 2           2             7    6     1       0.3168830269E+00       7    6    1         0.1744801888E+02      0.1745290015E+02
          0                 3           2             7    6     1      -0.1816241066E-01       7    6    1        -0.1009943798E+01      0.1025571083E+01
          0                 4           2             7    6     1      -0.3208224643E-02       7    6    1        -0.1782356054E+00      0.1893425979E+00
          0                 5           2             7    6     1      -0.5674263240E-03       7    6    1        -0.3149784839E-01      0.4213132095E-01
          0                 6           1             7    6     1      -0.1004731035E-03       7    6    1        -0.5573168605E-02      0.1369071189E-01
          0                 7           1             8    2     1       0.4513795430E-04       8    2    1         0.1172101169E-02      0.5683484557E-02
          0                 8           1             8    2     1       0.2029035243E-04       8    2    1         0.5268817034E-03      0.2511732011E-02
          0                 9           1             8    2     1       0.9120884330E-05       8    2    1         0.2368431203E-03      0.1122254048E-02

    ------------------------------------------------
       NWT REQUIRED            9 OUTER ITERATIONS 
       AND A TOTAL OF         14 INNER ITERATIONS.
    ------------------------------------------------

 NO OUTPUT CONTROL FOR STRESS PERIOD   18   TIME STEP   18
 
 SOLVING FOR HEAD 
                                                   Max.-Head-Change                         Max.-Flux-Residual
  Residual-Control   Outer-Iter.   Inner-Iter.     Column Row Layer    Maximum-Head-Change  Column Row Layer    Maximum-Flux-Residual          L2-NORM 
          0                 1           2             7    6     1      -0.2885381180E+00       7    6    1        -0.1573040171E+02      0.1583531318E+02
          0                 2           2             7    6     1       0.3168829188E+00       7    6    1         0.1744802906E+02      0.1745290677E+02
          0                 3           2             7    6     1      -0.1816223971E-01       7    6    1        -0.1009935359E+01      0.1025555975E+01
          0                 4           2             7    6     1      -0.3208189609E-02       7    6    1        -0.1782338386E+00      0.1893336337E+00
          0                 5           2             7    6     1      -0.5674193143E-03       7    6    1        -0.3149748958E-01      0.4212444114E-01
          0                 6           1             7    6     1      -0.1004717244E-03       7    6    1        -0.5573097266E-02      0.1368651451E-01
          0                 7           1             8    2     1       0.4512065637E-04       8    2    1         0.1171652297E-02      0.5681356909E-02
          0                 8           1             8    2     1       0.2028257023E-04       8    2    1         0.5266797566E-03      0.2510805513E-02
          0                 9           1             8    2     1       0.9117383025E-05       8    2    1         0.2367522646E-03      0.1121838326E-02

    ------------------------------------------------
       NWT REQUIRED            9 OUTER ITERATIONS 
       AND A TOTAL OF         14 INNER ITERATIONS.
    ------------------------------------------------

 NO OUTPUT CONTROL FOR STRESS PERIOD   18   TIME STEP   19
 
 SOLVING FOR HEAD 
                                                   Max.-Head-Change                         Max.-Flux-Residual
  Residual-Control   Outer-Iter.   Inner-Iter.     Column Row Layer    Maximum-Head-Change  Column Row Layer    Maximum-Flux-Residual          L2-NORM 
          0                 1           2             7    6     1      -0.2885360939E+00       7    6    1        -0.1573030194E+02      0.1583513166E+02
          0                 2           2             7    6     1       0.3168828095E+00       7    6    1         0.1744803911E+02      0.1745291381E+02
          0                 3           2             7    6     1      -0.1816209841E-01       7    6    1        -0.1009928560E+01      0.1025542834E+01
          0                 4           2             7    6     1      -0.3208159857E-02       7    6    1        -0.1782323637E+00      0.1893251029E+00
          0                 5           2             7    6     1      -0.5674132455E-03       7    6    1        -0.3149718276E-01      0.4211770257E-01
          0                 6           1             7    6     1      -0.1004705137E-03       7    6    1        -0.5573035211E-02      0.1368241406E-01
          0                 7           1             8    2     1       0.4510337395E-04       8    2    1         0.1171203826E-02      0.5679358706E-02
          0                 8           1             8    2     1       0.2027479502E-04       8    2    1         0.5264779929E-03      0.2509887436E-02
          0                 9           1             8    2     1       0.9113885097E-05       8    2    1         0.2366614928E-03      0.1121415834E-02

    ------------------------------------------------
       NWT REQUIRED            9 OUTER ITERATIONS 
       AND A TOTAL OF         14 INNER ITERATIONS.
    ------------------------------------------------

 NO OUTPUT CONTROL FOR STRESS PERIOD   18   TIME STEP   20
 
 SOLVING FOR HEAD 
                                                   Max.-Head-Change                         Max.-Flux-Residual
  Residual-Control   Outer-Iter.   Inner-Iter.     Column Row Layer    Maximum-Head-Change  Column Row Layer    Maximum-Flux-Residual          L2-NORM 
          0                 1           2             7    6     1      -0.2885342572E+00       7    6    1        -0.1573021232E+02      0.1583495179E+02
          0                 2           2             7    6     1       0.3168826973E+00       7    6    1         0.1744804900E+02      0.1745292036E+02
          0                 3           2             7    6     1      -0.1816198503E-01       7    6    1        -0.1009923298E+01      0.1025531060E+01
          0                 4           2             7    6     1      -0.3208135112E-02       7    6    1        -0.1782311644E+00      0.1893168601E+00
          0                 5           2             7    6     1      -0.5674080745E-03       7    6    1        -0.3149692536E-01      0.4211104465E-01
          0                 6           1             7    6     1      -0.1004694632E-03       7    6    1        -0.5572981993E-02      0.1367834547E-01
          0                 7           1             8    2     1       0.4508573286E-04       8    2    1         0.1170746054E-02      0.5677373124E-02
          0                 8           1             8    2     1       0.2026685875E-04       8    2    1         0.5262720490E-03      0.2508973806E-02
          0                 9           1             8    2     1       0.9110314762E-05       8    2    1         0.2365688398E-03      0.1121001882E-02

    ------------------------------------------------
       NWT REQUIRED            9 OUTER ITERATIONS 
       AND A TOTAL OF         14 INNER ITERATIONS.
    ------------------------------------------------

 NO OUTPUT CONTROL FOR STRESS PERIOD   18   TIME STEP   21
 
 SOLVING FOR HEAD 
                                                   Max.-Head-Change                         Max.-Flux-Residual
  Residual-Control   Outer-Iter.   Inner-Iter.     Column Row Layer    Maximum-Head-Change  Column Row Layer    Maximum-Flux-Residual          L2-NORM 
          0                 1           2             7    6     1      -0.2885325948E+00       7    6    1        -0.1573013229E+02      0.1583478314E+02
          0                 2           2             7    6     1       0.3168825830E+00       7    6    1         0.1744805872E+02      0.1745292489E+02
          0                 3           2             7    6     1      -0.1816189724E-01       7    6    1        -0.1009919447E+01      0.1025513019E+01
          0                 4           2             7    6     1      -0.3208114937E-02       7    6    1        -0.1782302173E+00      0.1893007265E+00
          0                 5           2             7    6     1      -0.5674037195E-03       7    6    1        -0.3149671302E-01      0.4209745592E-01
          0                 6           1             7    6     1      -0.1004685594E-03       7    6    1        -0.5572936848E-02      0.1367021310E-01
          0                 7           1             8    2     1       0.4506848208E-04       8    2    1         0.1170298394E-02      0.5673533268E-02
          0                 8           1             8    2     1       0.2025909768E-04       8    2    1         0.5260706515E-03      0.2507268857E-02
          0                 9           1             8    2     1       0.9106822962E-05       8    2    1         0.2364782360E-03      0.1120250447E-02

    ------------------------------------------------
       NWT REQUIRED            9 OUTER ITERATIONS 
       AND A TOTAL OF         14 INNER ITERATIONS.
    ------------------------------------------------

 NO OUTPUT CONTROL FOR STRESS PERIOD   18   TIME STEP   22
 
 SOLVING FOR HEAD 
                                                   Max.-Head-Change                         Max.-Flux-Residual
  Residual-Control   Outer-Iter.   Inner-Iter.     Column Row Layer    Maximum-Head-Change  Column Row Layer    Maximum-Flux-Residual          L2-NORM 
          0                 1           2             7    6     1      -0.2885310961E+00       7    6    1        -0.1573006115E+02      0.1583463287E+02
          0                 2           2             7    6     1       0.3168824660E+00       7    6    1         0.1744806829E+02      0.1745293091E+02
          0                 3           2             7    6     1      -0.1816183351E-01       7    6    1        -0.1009916920E+01      0.1025502982E+01
          0                 4           2             7    6     1      -0.3208099078E-02       7    6    1        -0.1782295077E+00      0.1892921237E+00
          0                 5           2             7    6     1      -0.5674001377E-03       7    6    1        -0.3149654325E-01      0.4209022772E-01
          0                 6           1             7    6     1      -0.1004677939E-03       7    6    1        -0.5572899333E-02      0.1366578599E-01
          0                 7           1             8    2     1       0.4505088101E-04       8    2    1         0.1169841632E-02      0.5671387772E-02
          0                 8           1             8    2     1       0.2025118017E-04       8    2    1         0.5258651787E-03      0.2506287426E-02
          0                 9           1             8    2     1       0.9103261255E-05       8    2    1         0.2363858014E-03      0.1119808572E-02

    ------------------------------------------------
       NWT REQUIRED            9 OUTER ITERATIONS 
       AND A TOTAL OF         14 INNER ITERATIONS.
    ------------------------------------------------

 NO OUTPUT CONTROL FOR STRESS PERIOD   18   TIME STEP   23
 
 SOLVING FOR HEAD 
                                                   Max.-Head-Change                         Max.-Flux-Residual
  Residual-Control   Outer-Iter.   Inner-Iter.     Column Row Layer    Maximum-Head-Change  Column Row Layer    Maximum-Flux-Residual          L2-NORM 
          0                 1           2             7    6     1      -0.2885297500E+00       7    6    1        -0.1572999839E+02      0.1583451420E+02
          0                 2           2             7    6     1       0.3168823467E+00       7    6    1         0.1744807769E+02      0.1745293746E+02
          0                 3           2             7    6     1      -0.1816179197E-01       7    6    1        -0.1009915616E+01      0.1025495025E+01
          0                 4           2             7    6     1      -0.3208087186E-02       7    6    1        -0.1782290169E+00      0.1892844722E+00
          0                 5           2             7    6     1      -0.5673972664E-03       7    6    1        -0.3149641262E-01      0.4208358766E-01
          0                 6           1             7    6     1      -0.1004671551E-03       7    6    1        -0.5572868788E-02      0.1366168882E-01
          0                 7           1             8    2     1       0.4503365612E-04       8    2    1         0.1169394664E-02      0.5669386258E-02
          0                 8           1             8    2     1       0.2024343035E-04       8    2    1         0.5256640821E-03      0.2505369094E-02
          0                 9           1             8    2     1       0.9099774833E-05       8    2    1         0.2362953298E-03      0.1119391744E-02

    ------------------------------------------------
       NWT REQUIRED            9 OUTER ITERATIONS 
       AND A TOTAL OF         14 INNER ITERATIONS.
    ------------------------------------------------

 NO OUTPUT CONTROL FOR STRESS PERIOD   18   TIME STEP   24
 
 SOLVING FOR HEAD 
                                                   Max.-Head-Change                         Max.-Flux-Residual
  Residual-Control   Outer-Iter.   Inner-Iter.     Column Row Layer    Maximum-Head-Change  Column Row Layer    Maximum-Flux-Residual          L2-NORM 
          0                 1           2             7    6     1      -0.2885284288E+00       7    6    1        -0.1572993708E+02      0.1583437916E+02
          0                 2           2             7    6     1       0.3168822133E+00       7    6    1         0.1744808628E+02      0.1745294307E+02
          0                 3           2             7    6     1      -0.1816174222E-01       7    6    1        -0.1009913851E+01      0.1025486229E+01
          0                 4           2             7    6     1      -0.3208073871E-02       7    6    1        -0.1782284462E+00      0.1892763912E+00
          0                 5           2             7    6     1      -0.5673941462E-03       7    6    1        -0.3149626807E-01      0.4207665935E-01
          0                 6           1             7    6     1      -0.1004664732E-03       7    6    1        -0.5572835828E-02      0.1365742732E-01
          0                 7           1             8    2     1       0.4501608794E-04       8    2    1         0.1168938743E-02      0.5667314955E-02
          0                 8           1             8    2     1       0.2023552734E-04       8    2    1         0.5254589872E-03      0.2504421177E-02
          0                 9           1             8    2     1       0.9096219754E-05       8    2    1         0.2362030679E-03      0.1118963154E-02

    ------------------------------------------------
       NWT REQUIRED            9 OUTER ITERATIONS 
       AND A TOTAL OF         14 INNER ITERATIONS.
    ------------------------------------------------

 NO OUTPUT CONTROL FOR STRESS PERIOD   18   TIME STEP   25
 
 SOLVING FOR HEAD 
                                                   Max.-Head-Change                         Max.-Flux-Residual
  Residual-Control   Outer-Iter.   Inner-Iter.     Column Row Layer    Maximum-Head-Change  Column Row Layer    Maximum-Flux-Residual          L2-NORM 
          0                 1           2             7    6     1      -0.2885273612E+00       7    6    1        -0.1572988969E+02      0.1583421540E+02
          0                 2           2             7    6     1       0.3168820896E+00       7    6    1         0.1744809537E+02      0.1745294676E+02
          0                 3           2             7    6     1      -0.1816174044E-01       7    6    1        -0.1009914741E+01      0.1025478438E+01
          0                 4           2             7    6     1      -0.3208069082E-02       7    6    1        -0.1782283474E+00      0.1892683305E+00
          0                 5           2             7    6     1      -0.5673925436E-03       7    6    1        -0.3149620746E-01      0.4206965322E-01
          0                 6           1             7    6     1      -0.1004660609E-03       7    6    1        -0.5572817793E-02      0.1365312128E-01
          0                 7           1             8    2     1       0.4499852990E-04       8    2    1         0.1168483103E-02      0.5665225033E-02
          0                 8           1             8    2     1       0.2022762821E-04       8    2    1         0.5252540028E-03      0.2503467814E-02
          0                 9           1             8    2     1       0.9092666051E-05       8    2    1         0.2361108524E-03      0.1118532363E-02

    ------------------------------------------------
       NWT REQUIRED            9 OUTER ITERATIONS 
       AND A TOTAL OF         14 INNER ITERATIONS.
    ------------------------------------------------

 NO OUTPUT CONTROL FOR STRESS PERIOD   18   TIME STEP   26
 
 SOLVING FOR HEAD 
                                                   Max.-Head-Change                         Max.-Flux-Residual
  Residual-Control   Outer-Iter.   Inner-Iter.     Column Row Layer    Maximum-Head-Change  Column Row Layer    Maximum-Flux-Residual          L2-NORM 
          0                 1           2             7    6     1      -0.2885264170E+00       7    6    1        -0.1572984890E+02      0.1583406276E+02
          0                 2           2             7    6     1       0.3168819624E+00       7    6    1         0.1744810427E+02      0.1745295114E+02
          0                 3           2             7    6     1      -0.1816175617E-01       7    6    1        -0.1009916592E+01      0.1025471865E+01
          0                 4           2             7    6     1      -0.3208067451E-02       7    6    1        -0.1782284218E+00      0.1892599029E+00
          0                 5           2             7    6     1      -0.5673915086E-03       7    6    1        -0.3149617804E-01      0.4206191028E-01
          0                 6           1             7    6     1      -0.1004657513E-03       7    6    1        -0.5572805396E-02      0.1364826126E-01
          0                 7           1             8    2     1       0.4498099111E-04       8    2    1         0.1168027965E-02      0.5662842374E-02
          0                 8           1             8    2     1       0.2021973871E-04       8    2    1         0.5250492601E-03      0.2502374157E-02
          0                 9           1             8    2     1       0.9089116976E-05       8    2    1         0.2360187448E-03      0.1118034645E-02

    ------------------------------------------------
       NWT REQUIRED            9 OUTER ITERATIONS 
       AND A TOTAL OF         14 INNER ITERATIONS.
    ------------------------------------------------

 NO OUTPUT CONTROL FOR STRESS PERIOD   18   TIME STEP   27
 
 SOLVING FOR HEAD 
                                                   Max.-Head-Change                         Max.-Flux-Residual
  Residual-Control   Outer-Iter.   Inner-Iter.     Column Row Layer    Maximum-Head-Change  Column Row Layer    Maximum-Flux-Residual          L2-NORM 
          0                 1           2             7    6     1      -0.2885255867E+00       7    6    1        -0.1572981445E+02      0.1583397550E+02
          0                 2           2             7    6     1       0.2675164739E-01       7    6    1         0.1473313847E+01      0.1529602777E+01
          0                 3           2             7    6     1      -0.1929455785E-02       7    6    1        -0.1073933181E+00      0.1815438563E+00
          0                 4           2             7    6     1       0.6032057843E-03       7    6    1         0.3380539754E-01      0.7115315744E-01
          0                 5           2             7    6     1       0.4072006062E-03       7    6    1         0.2282442861E-01      0.3599799513E-01
          0                 6           2             7    6     1       0.4209056934E-03       7    6    1         0.2359661833E-01      0.2668479913E-01
          0                 7           2             7    6     1       0.4199219868E-03       7    6    1         0.2354199143E-01      0.2420067660E-01
          0                 8           2             7    6     1       0.4199861438E-03       7    6    1         0.2354557522E-01      0.2368618456E-01
          0                 9           2             7    6     1       0.4199801379E-03       7    6    1         0.2354508189E-01      0.2358055539E-01
          0                10           2             7    6     1       0.4199800287E-03       7    6    1         0.2354487924E-01      0.2355916107E-01
                                                   Max.-Head-Change                         Max.-Flux-Residual
  Residual-Control   Outer-Iter.   Inner-Iter.     Column Row Layer    Maximum-Head-Change  Column Row Layer    Maximum-Flux-Residual          L2-NORM 
          0                11           2             7    6     1       0.4199628095E-03       7    6    1         0.2354370358E-01      0.2355377500E-01
          0                12           2             7    6     1       0.4199809274E-03       7    6    1         0.2354450415E-01      0.2355369737E-01
          0                13           2             7    6     1       0.4199796030E-03       7    6    1         0.2354421213E-01      0.2355326140E-01
          0                14           2             7    6     1       0.4199796651E-03       7    6    1         0.2354399706E-01      0.2355300903E-01
          0                15           2             7    6     1       0.4199796392E-03       7    6    1         0.2354377664E-01      0.2355276533E-01
          0                16           2             7    6     1       0.4199796233E-03       7    6    1         0.2354355659E-01      0.2355256248E-01
          0                17           2             7    6     1       0.4199796087E-03       7    6    1         0.2354333653E-01      0.2355233289E-01
          0                18           2             7    6     1       0.4199795939E-03       7    6    1         0.2354311645E-01      0.2355212187E-01
          0                19           2             7    6     1       0.4199625707E-03       7    6    1         0.2354194274E-01      0.2355093222E-01
          0                20           2             7    6     1       0.4199807621E-03       7    6    1         0.2354274354E-01      0.2355172097E-01
                                                   Max.-Head-Change                         Max.-Flux-Residual
  Residual-Control   Outer-Iter.   Inner-Iter.     Column Row Layer    Maximum-Head-Change  Column Row Layer    Maximum-Flux-Residual          L2-NORM 
          0                21           2             7    6     1       0.4199794682E-03       7    6    1         0.2354245159E-01      0.2355143943E-01
          0                22           2             7    6     1       0.4199795454E-03       7    6    1         0.2354223662E-01      0.2355124727E-01
          0                23           2             7    6     1       0.4199795245E-03       7    6    1         0.2354201620E-01      0.2355103085E-01
          0                24           2             7    6     1       0.4199795118E-03       7    6    1         0.2354179622E-01      0.2355075515E-01
          0                25           2             7    6     1       0.4199794978E-03       7    6    1         0.2354157618E-01      0.2355062219E-01
          0                26           2             7    6     1       0.4199794846E-03       7    6    1         0.2354135618E-01      0.2355035810E-01
          0                27           2             7    6     1       0.4199624600E-03       7    6    1         0.2354018247E-01      0.2354917625E-01
          0                28           2             7    6     1       0.4199806541E-03       7    6    1         0.2354098337E-01      0.2354997429E-01
          0                29           2             7    6     1       0.4199793582E-03       7    6    1         0.2354069137E-01      0.2354963962E-01
          0                30           2             7    6     1       0.4199794360E-03       7    6    1         0.2354047645E-01      0.2354947331E-01
                                                   Max.-Head-Change                         Max.-Flux-Residual
  Residual-Control   Outer-Iter.   Inner-Iter.     Column Row Layer    Maximum-Head-Change  Column Row Layer    Maximum-Flux-Residual          L2-NORM 
          0                31           2             7    6     1       0.4199794154E-03       7    6    1         0.2354025607E-01      0.2354925261E-01
          0                32           2             7    6     1       0.4199794023E-03       7    6    1         0.2354003611E-01      0.2354903295E-01
          0                33           2             7    6     1       0.4199793887E-03       7    6    1         0.2353981612E-01      0.2354878284E-01
          0                34           2             7    6     1       0.4199793752E-03       7    6    1         0.2353959612E-01      0.2354862890E-01
          0                35           2             7    6     1       0.4199623490E-03       7    6    1         0.2353842246E-01      0.2354738089E-01
          0                36           2             7    6     1       0.4199805463E-03       7    6    1         0.2353922348E-01      0.2354821101E-01
          0                37           2             7    6     1       0.4199792488E-03       7    6    1         0.2353893143E-01      0.2354793383E-01
          0                38           2             7    6     1       0.4199793263E-03       7    6    1         0.2353871655E-01      0.2354770559E-01
          0                39           2             7    6     1       0.4199793065E-03       7    6    1         0.2353849623E-01      0.2354746955E-01
          0                40           2             7    6     1       0.4199792933E-03       7    6    1         0.2353827627E-01      0.2354726635E-01
                                                   Max.-Head-Change                         Max.-Flux-Residual
  Residual-Control   Outer-Iter.   Inner-Iter.     Column Row Layer    Maximum-Head-Change  Column Row Layer    Maximum-Flux-Residual          L2-NORM 
          0                41           2             7    6     1       0.4199792789E-03       7    6    1         0.2353805629E-01      0.2354703955E-01
          0                42           2             7    6     1       0.4199622525E-03       7    6    1         0.2353688268E-01      0.2354586358E-01
          0                43           2             7    6     1       0.4199804517E-03       7    6    1         0.2353768378E-01      0.2354665670E-01
          0                44           2             7    6     1       0.4199791531E-03       7    6    1         0.2353739169E-01      0.2354640030E-01
          0                45           2             7    6     1       0.4199792305E-03       7    6    1         0.2353717684E-01      0.2354614263E-01
          0                46           2             7    6     1       0.4199621968E-03       7    6    1         0.2353600287E-01      0.2354499782E-01
          0                47           2             7    6     1       0.4199803981E-03       7    6    1         0.2353680406E-01      0.2354579383E-01
          0                48           2             7    6     1       0.4199790983E-03       7    6    1         0.2353651191E-01      0.2354550730E-01
          0                49           2             7    6     1       0.4199791758E-03       7    6    1         0.2353629710E-01      0.2354525663E-01
          0                50           2             7    6     1       0.4199621412E-03       7    6    1         0.2353512314E-01      0.2354412454E-01
                                                   Max.-Head-Change                         Max.-Flux-Residual
  Residual-Control   Outer-Iter.   Inner-Iter.     Column Row Layer    Maximum-Head-Change  Column Row Layer    Maximum-Flux-Residual          L2-NORM 
          0                51           2             7    6     1       0.4199803438E-03       7    6    1         0.2353592439E-01      0.2354490575E-01
          0                52           2             7    6     1       0.4199790437E-03       7    6    1         0.2353563225E-01      0.2354462425E-01
          0                53           2             7    6     1       0.4199791214E-03       7    6    1         0.2353541744E-01      0.2354442867E-01
          0                54           2             7    6     1       0.4199620863E-03       7    6    1         0.2353424349E-01      0.2354320867E-01
          0                55           2             7    6     1       0.4199802898E-03       7    6    1         0.2353504477E-01      0.2354402507E-01
          0                56           2             7    6     1       0.4199789887E-03       7    6    1         0.2353475260E-01      0.2354374230E-01
          0                57           2             7    6     1       0.4199790666E-03       7    6    1         0.2353453783E-01      0.2354351012E-01
          0                58           2             7    6     1       0.4199620309E-03       7    6    1         0.2353336390E-01      0.2354233098E-01
          0                59           2             7    6     1       0.4199802361E-03       7    6    1         0.2353416525E-01      0.2354314395E-01
          0                60           2             7    6     1       0.4199789339E-03       7    6    1         0.2353387303E-01      0.2354284969E-01
                                                   Max.-Head-Change                         Max.-Flux-Residual
  Residual-Control   Outer-Iter.   Inner-Iter.     Column Row Layer    Maximum-Head-Change  Column Row Layer    Maximum-Flux-Residual          L2-NORM 
          0                61           2             7    6     1       0.4199790120E-03       7    6    1         0.2353365829E-01      0.2354264463E-01
          0                62           2             7    6     1       0.4199619755E-03       7    6    1         0.2353248437E-01      0.2354149952E-01
          0                63           2             7    6     1       0.4199801821E-03       7    6    1         0.2353328577E-01      0.2354224132E-01
          0                64           2             7    6     1       0.4199788792E-03       7    6    1         0.2353299354E-01      0.2354200352E-01
          0                65           2             7    6     1       0.4199789572E-03       7    6    1         0.2353277880E-01      0.2354173087E-01
          0                66           2             7    6     1       0.4199619200E-03       7    6    1         0.2353160491E-01      0.2354060238E-01
          0                67           2             7    6     1       0.4199801284E-03       7    6    1         0.2353240638E-01      0.2354138731E-01
          0                68           2             7    6     1       0.4199788243E-03       7    6    1         0.2353211409E-01      0.2354107691E-01
          0                69           2             7    6     1       0.4199789029E-03       7    6    1         0.2353189939E-01      0.2354086502E-01
          0                70           2             7    6     1       0.4199618643E-03       7    6    1         0.2353072549E-01      0.2353970680E-01
                                                   Max.-Head-Change                         Max.-Flux-Residual
  Residual-Control   Outer-Iter.   Inner-Iter.     Column Row Layer    Maximum-Head-Change  Column Row Layer    Maximum-Flux-Residual          L2-NORM 
          0                71           2             7    6     1       0.4199800743E-03       7    6    1         0.2353152704E-01      0.2354048897E-01
          0                72           2             7    6     1       0.4199787697E-03       7    6    1         0.2353123474E-01      0.2354023360E-01
          0                73           2             7    6     1       0.4199788480E-03       7    6    1         0.2353102006E-01      0.2353996511E-01
          0                74           2             7    6     1       0.4199618095E-03       7    6    1         0.2352984619E-01      0.2353882820E-01
          0                75           2             7    6     1       0.4199800202E-03       7    6    1         0.2353064776E-01      0.2353963061E-01
          0                76           2             7    6     1       0.4199787152E-03       7    6    1         0.2353035544E-01      0.2353932584E-01
          0                77           2             7    6     1       0.4199787926E-03       7    6    1         0.2353014076E-01      0.2353910352E-01
          0                78           2             7    6     1       0.4199617545E-03       7    6    1         0.2352896695E-01      0.2353794008E-01
          0                79           2             7    6     1       0.4199799665E-03       7    6    1         0.2352976855E-01      0.2353875330E-01
          0                80           2             7    6     1       0.4199786598E-03       7    6    1         0.2352947619E-01      0.2353843600E-01
                                                   Max.-Head-Change                         Max.-Flux-Residual
  Residual-Control   Outer-Iter.   Inner-Iter.     Column Row Layer    Maximum-Head-Change  Column Row Layer    Maximum-Flux-Residual          L2-NORM 
          0                81           2             7    6     1       0.4199787385E-03       7    6    1         0.2352926156E-01      0.2353821678E-01
          0                82           2             7    6     1       0.4199787187E-03       7    6    1         0.2352904141E-01      0.2353804115E-01
          0                83           2             7    6     1       0.4199787053E-03       7    6    1         0.2352882163E-01      0.2353777761E-01
          0                84           2             7    6     1       0.4199786913E-03       7    6    1         0.2352860185E-01      0.2353755679E-01
          0                85           2             7    6     1       0.4199786778E-03       7    6    1         0.2352838207E-01      0.2353736769E-01
          0                86           2             7    6     1       0.4199786641E-03       7    6    1         0.2352816230E-01      0.2353714047E-01
          0                87           2             7    6     1       0.4199786508E-03       7    6    1         0.2352794253E-01      0.2353690101E-01
          0                88           2             7    6     1       0.4199786368E-03       7    6    1         0.2352772275E-01      0.2353671134E-01
          0                89           2             7    6     1       0.4199786230E-03       7    6    1         0.2352750298E-01      0.2353647617E-01
          0                90           2             7    6     1       0.4199786096E-03       7    6    1         0.2352728323E-01      0.2353626984E-01
                                                   Max.-Head-Change                         Max.-Flux-Residual
  Residual-Control   Outer-Iter.   Inner-Iter.     Column Row Layer    Maximum-Head-Change  Column Row Layer    Maximum-Flux-Residual          L2-NORM 
          0                91           2             7    6     1       0.4199785957E-03       7    6    1         0.2352706348E-01      0.2353600932E-01
          0                92           2             7    6     1       0.4199785823E-03       7    6    1         0.2352684373E-01      0.2353581429E-01
          0                93           2             7    6     1       0.4199785690E-03       7    6    1         0.2352662398E-01      0.2353576049E-01
          0                94           2             7    6     1       0.4199785544E-03       7    6    1         0.2352640421E-01      0.2353518764E-01
          0                95           2             7    6     1       0.4199785413E-03       7    6    1         0.2352618449E-01      0.2353516589E-01
          0                96           2             7    6     1       0.4199785276E-03       7    6    1         0.2352596475E-01      0.2353492052E-01
          0                97           2             7    6     1       0.4199785138E-03       7    6    1         0.2352574502E-01      0.2353471378E-01
          0                98           2             7    6     1       0.4199784999E-03       7    6    1         0.2352552529E-01      0.2353449627E-01
          0                99           2             7    6     1       0.4199784866E-03       7    6    1         0.2352530557E-01      0.2353427136E-01
          0               100           2             7    6     1       0.4199784727E-03       7    6    1         0.2352508585E-01      0.2353404770E-01
                                                   Max.-Head-Change                         Max.-Flux-Residual
  Residual-Control   Outer-Iter.   Inner-Iter.     Column Row Layer    Maximum-Head-Change  Column Row Layer    Maximum-Flux-Residual          L2-NORM 
          0               101           2             7    6     1       0.4199784592E-03       7    6    1         0.2352486615E-01      0.2353382005E-01
          0               102           2             7    6     1       0.4199784456E-03       7    6    1         0.2352464643E-01      0.2353361762E-01
          0               103           2             7    6     1       0.4199784318E-03       7    6    1         0.2352442672E-01      0.2353338002E-01
          0               104           2             7    6     1       0.4199784182E-03       7    6    1         0.2352420702E-01      0.2353314907E-01
          0               105           2             7    6     1       0.4199784046E-03       7    6    1         0.2352398732E-01      0.2353295090E-01
          0               106           2             7    6     1       0.4199783908E-03       7    6    1         0.2352376762E-01      0.2353277747E-01
          0               107           2             7    6     1       0.4199783772E-03       7    6    1         0.2352354794E-01      0.2353250800E-01
          0               108           2             7    6     1       0.4199783634E-03       7    6    1         0.2352332825E-01      0.2353224340E-01
          0               109           2             7    6     1       0.4199783496E-03       7    6    1         0.2352310857E-01      0.2353212431E-01
          0               110           2             7    6     1       0.4199783363E-03       7    6    1         0.2352288890E-01      0.2353183722E-01
                                                   Max.-Head-Change                         Max.-Flux-Residual
  Residual-Control   Outer-Iter.   Inner-Iter.     Column Row Layer    Maximum-Head-Change  Column Row Layer    Maximum-Flux-Residual          L2-NORM 
          0               111           2             7    6     1       0.4199783224E-03       7    6    1         0.2352266922E-01      0.2353162413E-01
          0               112           2             7    6     1       0.4199783089E-03       7    6    1         0.2352244955E-01      0.2353142164E-01
          0               113           2             7    6     1       0.4199782952E-03       7    6    1         0.2352222988E-01      0.2353118509E-01
          0               114           2             7    6     1       0.4199782812E-03       7    6    1         0.2352201021E-01      0.2353096381E-01
          0               115           2             7    6     1       0.4199782682E-03       7    6    1         0.2352179057E-01      0.2353073476E-01
          0               116           2             7    6     1       0.4199782537E-03       7    6    1         0.2352157089E-01      0.2353052649E-01
          0               117           2             7    6     1       0.4199782408E-03       7    6    1         0.2352135127E-01      0.2353031570E-01
          0               118           2             7    6     1       0.4199782265E-03       7    6    1         0.2352113160E-01      0.2353009561E-01
          0               119           2             7    6     1       0.4199782134E-03       7    6    1         0.2352091197E-01      0.2352984410E-01
          0               120           2             7    6     1       0.4199781994E-03       7    6    1         0.2352069232E-01      0.2352967812E-01
                                                   Max.-Head-Change                         Max.-Flux-Residual
  Residual-Control   Outer-Iter.   Inner-Iter.     Column Row Layer    Maximum-Head-Change  Column Row Layer    Maximum-Flux-Residual          L2-NORM 
          0               121           2             7    6     1       0.4199781854E-03       7    6    1         0.2352047269E-01      0.2352940804E-01
          0               122           2             7    6     1       0.4199781724E-03       7    6    1         0.2352025308E-01      0.2352921615E-01
          0               123           2             7    6     1       0.4199781584E-03       7    6    1         0.2352003343E-01      0.2352896867E-01
          0               124           2             7    6     1       0.4199781448E-03       7    6    1         0.2351981382E-01      0.2352878465E-01
          0               125           2             7    6     1       0.4199781311E-03       7    6    1         0.2351959420E-01      0.2352854856E-01
          0               126           2             7    6     1       0.4199781172E-03       7    6    1         0.2351937458E-01      0.2352832003E-01
          0               127           2             7    6     1       0.4199781037E-03       7    6    1         0.2351915498E-01      0.2352810716E-01
          0               128           2             7    6     1       0.4199780900E-03       7    6    1         0.2351893537E-01      0.2352788467E-01
          0               129           2             7    6     1       0.4199780768E-03       7    6    1         0.2351871578E-01      0.2352767999E-01
          0               130           2             7    6     1       0.4199780620E-03       7    6    1         0.2351849616E-01      0.2352743374E-01
                                                   Max.-Head-Change                         Max.-Flux-Residual
  Residual-Control   Outer-Iter.   Inner-Iter.     Column Row Layer    Maximum-Head-Change  Column Row Layer    Maximum-Flux-Residual          L2-NORM 
          0               131           2             7    6     1       0.4199780495E-03       7    6    1         0.2351827661E-01      0.2352722801E-01
          0               132           2             7    6     1       0.4199780352E-03       7    6    1         0.2351805699E-01      0.2352700678E-01
          0               133           2             7    6     1       0.4199780218E-03       7    6    1         0.2351783741E-01      0.2352679773E-01
          0               134           2             7    6     1       0.4199780082E-03       7    6    1         0.2351761783E-01      0.2352655765E-01
          0               135           2             7    6     1       0.4199779943E-03       7    6    1         0.2351739825E-01      0.2352635823E-01
          0               136           2             7    6     1       0.4199779805E-03       7    6    1         0.2351717868E-01      0.2352612411E-01
          0               137           2             7    6     1       0.4199779672E-03       7    6    1         0.2351695913E-01      0.2352590674E-01
          0               138           2             7    6     1       0.4199779532E-03       7    6    1         0.2351673955E-01      0.2352569014E-01
          0               139           2             7    6     1       0.4199779400E-03       7    6    1         0.2351652000E-01      0.2352546542E-01
          0               140           2             7    6     1       0.4199779255E-03       7    6    1         0.2351630043E-01      0.2352524938E-01
                                                   Max.-Head-Change                         Max.-Flux-Residual
  Residual-Control   Outer-Iter.   Inner-Iter.     Column Row Layer    Maximum-Head-Change  Column Row Layer    Maximum-Flux-Residual          L2-NORM 
          0               141           2             7    6     1       0.4199779126E-03       7    6    1         0.2351608091E-01      0.2352500844E-01
          0               142           2             7    6     1       0.4199778984E-03       7    6    1         0.2351586134E-01      0.2352483037E-01
          0               143           2             7    6     1       0.4199778849E-03       7    6    1         0.2351564181E-01      0.2352457358E-01
          0               144           2             7    6     1       0.4199778715E-03       7    6    1         0.2351542228E-01      0.2352436826E-01
          0               145           2             7    6     1       0.4199778579E-03       7    6    1         0.2351520274E-01      0.2352414531E-01
          0               146           2             7    6     1       0.4199778440E-03       7    6    1         0.2351498319E-01      0.2352389809E-01
          0               147           2             7    6     1       0.4199778302E-03       7    6    1         0.2351476367E-01      0.2352374380E-01
          0               148           2             7    6     1       0.4199778167E-03       7    6    1         0.2351454416E-01      0.2352349057E-01
          0               149           2             7    6     1       0.4199778030E-03       7    6    1         0.2351432464E-01      0.2352326993E-01
          0               150           2             7    6     1       0.4199777896E-03       7    6    1         0.2351410512E-01      0.2352304712E-01
                                                   Max.-Head-Change                         Max.-Flux-Residual
  Residual-Control   Outer-Iter.   Inner-Iter.     Column Row Layer    Maximum-Head-Change  Column Row Layer    Maximum-Flux-Residual          L2-NORM 
          0               151           2             7    6     1       0.4199777752E-03       7    6    1         0.2351388560E-01      0.2352284155E-01
          0               152           2             7    6     1       0.4199777624E-03       7    6    1         0.2351366612E-01      0.2352258765E-01
          0               153           2             7    6     1       0.4199777479E-03       7    6    1         0.2351344659E-01      0.2352243470E-01
          0               154           2             7    6     1       0.4199777351E-03       7    6    1         0.2351322713E-01      0.2352217152E-01
          0               155           2             7    6     1       0.4199777211E-03       7    6    1         0.2351300760E-01      0.2352190778E-01
          0               156           2             7    6     1       0.4199777073E-03       7    6    1         0.2351278811E-01      0.2352176112E-01
          0               157           2             7    6     1       0.4199776934E-03       7    6    1         0.2351256862E-01      0.2352150584E-01
          0               158           2             7    6     1       0.4199776803E-03       7    6    1         0.2351234916E-01      0.2352130260E-01
          0               159           2             7    6     1       0.4199776661E-03       7    6    1         0.2351212966E-01      0.2352105217E-01
          0               160           2             7    6     1       0.4199776526E-03       7    6    1         0.2351191020E-01      0.2352084337E-01
                                                   Max.-Head-Change                         Max.-Flux-Residual
  Residual-Control   Outer-Iter.   Inner-Iter.     Column Row Layer    Maximum-Head-Change  Column Row Layer    Maximum-Flux-Residual          L2-NORM 
          0               161           2             7    6     1       0.4199606069E-03       7    6    1         0.2351073706E-01      0.2351967924E-01
          0               162           2             7    6     1       0.4199958791E-03       7    6    1         0.2351249346E-01      0.2352143851E-01
          0               163           2             7    6     1       0.4199592692E-03       7    6    1         0.2351022465E-01      0.2351916354E-01
          0               164           2             7    6     1       0.4199959470E-03       7    6    1         0.2351205985E-01      0.2352102698E-01
          0               165           2             7    6     1       0.4199592344E-03       7    6    1         0.2350978535E-01      0.2351867566E-01
          0               166           2             7    6     1       0.4199959207E-03       7    6    1         0.2351162099E-01      0.2352058369E-01
          0               167           2             7    6     1       0.4199592062E-03       7    6    1         0.2350934644E-01      0.2351828767E-01
          0               168           2             7    6     1       0.4199958946E-03       7    6    1         0.2351118215E-01      0.2352009048E-01
          0               169           2             7    6     1       0.4199591780E-03       7    6    1         0.2350890753E-01      0.2351785396E-01
          0               170           2             7    6     1       0.4199958675E-03       7    6    1         0.2351074329E-01      0.2351968274E-01
                                                   Max.-Head-Change                         Max.-Flux-Residual
  Residual-Control   Outer-Iter.   Inner-Iter.     Column Row Layer    Maximum-Head-Change  Column Row Layer    Maximum-Flux-Residual          L2-NORM 
          0               171           2             7    6     1       0.4199591506E-03       7    6    1         0.2350846867E-01      0.2351738805E-01
          0               172           2             7    6     1       0.4199958407E-03       7    6    1         0.2351030445E-01      0.2351924577E-01
          0               173           2             7    6     1       0.4199591221E-03       7    6    1         0.2350802980E-01      0.2351695723E-01
          0               174           2             7    6     1       0.4199958144E-03       7    6    1         0.2350986565E-01      0.2351881103E-01
          0               175           2             7    6     1       0.4199590940E-03       7    6    1         0.2350759095E-01      0.2351654668E-01
          0               176           2             7    6     1       0.4199957882E-03       7    6    1         0.2350942686E-01      0.2351834865E-01
          0               177           2             7    6     1       0.4199590661E-03       7    6    1         0.2350715210E-01      0.2351610925E-01
          0               178           2             7    6     1       0.4199957613E-03       7    6    1         0.2350898805E-01      0.2351791647E-01
          0               179           2             7    6     1       0.4199590376E-03       7    6    1         0.2350671327E-01      0.2351565237E-01
          0               180           2             7    6     1       0.4199957349E-03       7    6    1         0.2350854930E-01      0.2351746718E-01
                                                   Max.-Head-Change                         Max.-Flux-Residual
  Residual-Control   Outer-Iter.   Inner-Iter.     Column Row Layer    Maximum-Head-Change  Column Row Layer    Maximum-Flux-Residual          L2-NORM 
          0               181           2             7    6     1       0.4199590098E-03       7    6    1         0.2350627447E-01      0.2351520042E-01
          0               182           2             7    6     1       0.4199957075E-03       7    6    1         0.2350811054E-01      0.2351702594E-01
          0               183           2             7    6     1       0.4199589820E-03       7    6    1         0.2350583572E-01      0.2351478403E-01
          0               184           2             7    6     1       0.4199956813E-03       7    6    1         0.2350767182E-01      0.2351661379E-01
          0               185           2             7    6     1       0.4199589538E-03       7    6    1         0.2350539694E-01      0.2351431925E-01
          0               186           2             7    6     1       0.4199956548E-03       7    6    1         0.2350723310E-01      0.2351826068E-01
          0               187           2             7    6     1       0.4199589254E-03       7    6    1         0.2350495818E-01      0.2351528434E-01
          0               188           2             7    6     1       0.4199956282E-03       7    6    1         0.2350679442E-01      0.2351575895E-01
          0               189           2             7    6     1       0.4199588977E-03       7    6    1         0.2350451946E-01      0.2351349066E-01
          0               190           2             7    6     1       0.4199956016E-03       7    6    1         0.2350635573E-01      0.2351528378E-01
                                                   Max.-Head-Change                         Max.-Flux-Residual
  Residual-Control   Outer-Iter.   Inner-Iter.     Column Row Layer    Maximum-Head-Change  Column Row Layer    Maximum-Flux-Residual          L2-NORM 
          0               191           2             7    6     1       0.4199588696E-03       7    6    1         0.2350408074E-01      0.2351299632E-01
          0               192           2             7    6     1       0.4199955749E-03       7    6    1         0.2350591705E-01      0.2351486098E-01
          0               193           2             7    6     1       0.4199588413E-03       7    6    1         0.2350364203E-01      0.2351257340E-01
          0               194           2             7    6     1       0.4199955485E-03       7    6    1         0.2350547841E-01      0.2351436498E-01
          0               195           2             7    6     1       0.4199588133E-03       7    6    1         0.2350320335E-01      0.2351218370E-01
          0               196           2             7    6     1       0.4199955218E-03       7    6    1         0.2350503978E-01      0.2351396044E-01
          0               197           2             7    6     1       0.4199587855E-03       7    6    1         0.2350276467E-01      0.2351169451E-01
          0               198           2             7    6     1       0.4199954951E-03       7    6    1         0.2350460115E-01      0.2351360393E-01
          0               199           2             7    6     1       0.4199587575E-03       7    6    1         0.2350232602E-01      0.2351115115E-01
          0               200           2             7    6     1       0.4199954683E-03       7    6    1         0.2350416254E-01      0.2351309015E-01

    ------------------------------------------------
       NWT REQUIRED          200 OUTER ITERATIONS 
       AND A TOTAL OF        400 INNER ITERATIONS.
    ------------------------------------------------

 NO OUTPUT CONTROL FOR STRESS PERIOD   18   TIME STEP   28



 STREAM LISTING     PERIOD     18   STEP       28

 LAYER ROW COL. STREAM  RCH.  FLOW INTO     FLOW TO   FLOW OUT OF   OVRLND.     DIRECT     STREAM       STREAM     STREAM     STREAM   STREAMBED  STREAMBED
                SEG.NO.  NO.  STRM. RCH.    AQUIFER    STRM. RCH.    RUNOFF     PRECIP       ET          HEAD       DEPTH      WIDTH   CONDCTNC.   GRADIENT

   1    1    1     1     1    6.3000E+01  3.8236E-09   6.3000E+01  0.000E+00  0.000E+00  0.000E+00  1.09461E+03  1.562E+00  1.863E+01  8.382E-10  1.521E+00
   1    2    2     1     2    6.3000E+01  5.9422E-09   6.3000E+01  0.000E+00  0.000E+00  0.000E+00  1.08962E+03  1.560E+00  1.861E+01  1.303E-09  1.520E+00
   1    3    3     1     3    6.3000E+01  5.0953E-09   6.3000E+01  0.000E+00  0.000E+00  0.000E+00  1.08398E+03  1.561E+00  1.862E+01  1.117E-09  1.520E+00
   1    3    4     1     4    6.3000E+01  4.7139E-09   6.3000E+01  0.000E+00  0.000E+00  0.000E+00  1.07897E+03  1.561E+00  1.862E+01  1.034E-09  1.520E+00
   1    4    5     2     1    6.1000E+01  3.9454E-01   6.0605E+01  0.000E+00  0.000E+00  0.000E+00  1.07399E+03  2.058E+00  1.200E+01  7.800E-02  1.686E+00
   1    5    6     2     2    6.0605E+01  3.0307E-01   6.0302E+01  0.000E+00  0.000E+00  0.000E+00  1.06856E+03  2.051E+00  1.200E+01  6.000E-02  1.684E+00
   1    6    6     2     3    6.0302E+01  3.0270E-01   6.0000E+01  0.000E+00  0.000E+00  0.000E+00  1.06384E+03  2.045E+00  1.200E+01  6.000E-02  1.682E+00
   1    7    6     2     4    6.0000E+01  3.0233E-01   5.9697E+01  0.000E+00  0.000E+00  0.000E+00  1.05911E+03  2.039E+00  1.200E+01  6.000E-02  1.680E+00
   1    8    6     2     5    5.9697E+01  3.0196E-01   5.9395E+01  0.000E+00  0.000E+00  0.000E+00  1.05439E+03  2.033E+00  1.200E+01  6.000E-02  1.678E+00
   1    3    5     3     1    2.0000E+00  2.8252E-01   1.7175E+00  0.000E+00  0.000E+00  0.000E+00  1.07555E+03  1.909E+00  9.636E+00  7.227E-02  1.955E+00
   1    3    6     3     2    1.7175E+00  2.4905E-01   1.4684E+00  0.000E+00  0.000E+00  0.000E+00  1.07264E+03  1.727E+00  8.909E+00  6.682E-02  1.864E+00
   1    3    7     3     3    1.4684E+00  1.9718E-01   1.2712E+00  0.000E+00  0.000E+00  0.000E+00  1.06987E+03  1.555E+00  8.218E+00  5.547E-02  1.777E+00
   1    4    8     3     4    1.2712E+00  2.2567E-01   1.0456E+00  0.000E+00  0.000E+00  0.000E+00  1.06682E+03  1.364E+00  7.455E+00  6.709E-02  1.682E+00
   1    5    8     3     5    1.0456E+00  1.5790E-01   8.8768E-01  0.000E+00  0.000E+00  0.000E+00  1.06362E+03  1.164E+00  6.655E+00  4.991E-02  1.582E+00
   1    6    8     3     6    8.8768E-01  5.5980E-02   8.3170E-01  0.000E+00  0.000E+00  0.000E+00  1.06158E+03  1.036E+00  6.145E+00  1.844E-02  1.518E+00
   1    5   10     4     1    1.0000E+01  9.0919E-02   9.9091E+00  0.000E+00  0.000E+00  0.000E+00  1.07836E+03  6.368E-01  1.000E+01  2.500E-02  1.212E+00
   1    5    9     4     2    9.9091E+00  1.8158E-01   9.7275E+00  0.000E+00  0.000E+00  0.000E+00  1.07154E+03  6.315E-01  1.000E+01  5.000E-02  1.211E+00
   1    6    8     4     3    9.7275E+00  1.2689E-01   9.6006E+00  0.000E+00  0.000E+00  0.000E+00  1.06381E+03  6.256E-01  1.000E+01  3.500E-02  1.209E+00
   1    6    8     5     1    1.0432E+01  2.2686E-09   1.0432E+01  0.000E+00  0.000E+00  0.000E+00  1.05868E+03  6.790E-01  1.542E+01  6.166E-10  1.226E+00
   1    7    7     5     2    1.0432E+01  2.8306E-09   1.0432E+01  0.000E+00  0.000E+00  0.000E+00  1.05418E+03  6.784E-01  1.539E+01  7.695E-10  1.226E+00
   1    8    7     5     3    1.0432E+01  1.9868E-09   1.0432E+01  0.000E+00  0.000E+00  0.000E+00  1.04993E+03  6.794E-01  1.543E+01  5.400E-10  1.226E+00
   1    8    6     5     4    1.0432E+01  1.4217E-09   1.0432E+01  0.000E+00  0.000E+00  0.000E+00  1.04693E+03  6.800E-01  1.545E+01  3.863E-10  1.227E+00
   1    9    6     6     1    6.4788E+01  3.0954E-01   6.4478E+01  0.000E+00  0.000E+00  0.000E+00  1.04489E+03  2.159E+00  1.200E+01  6.000E-02  1.720E+00
   1   10    7     6     2    6.4478E+01  3.0916E-01   6.4169E+01  0.000E+00  0.000E+00  0.000E+00  1.04033E+03  2.153E+00  1.200E+01  6.000E-02  1.718E+00
   1   11    7     6     3    6.4169E+01  3.0879E-01   6.3860E+01  0.000E+00  0.000E+00  0.000E+00  1.03578E+03  2.147E+00  1.200E+01  6.000E-02  1.716E+00
   1   12    7     6     4    6.3860E+01  3.0842E-01   6.3552E+01  0.000E+00  0.000E+00  0.000E+00  1.03123E+03  2.140E+00  1.200E+01  6.000E-02  1.713E+00
   1   13    7     6     5    6.3552E+01  1.2326E-01   6.3428E+01  0.000E+00  0.000E+00  0.000E+00  1.02805E+03  2.136E+00  1.200E+01  2.400E-02  1.712E+00
   1   14    9     7     1    1.5000E+02  2.9539E-08   1.5000E+02  0.000E+00  0.000E+00  0.000E+00  1.03986E+03  2.283E+00  5.528E+01  5.591E-09  1.761E+00
   1   13    8     7     2    1.5000E+02  3.2486E-14   1.5000E+02  0.000E+00  0.000E+00  0.000E+00  1.03478E+03  2.283E+00  5.527E+01  6.150E-15  1.761E+00
   1   13    7     7     3    1.5000E+02  2.9539E-08   1.5000E+02  0.000E+00  0.000E+00  0.000E+00  1.02970E+03  2.283E+00  5.528E+01  5.591E-09  1.761E+00
   1   13    6     8     1    2.1343E+02  2.9410E-13   2.1343E+02  0.000E+00  0.000E+00  0.000E+00  1.02508E+03  3.207E+00  4.650E+01  4.738E-14  2.069E+00
   1   13    5     8     2    2.1343E+02  0.0000E+00   2.1343E+02  0.000E+00  0.000E+00  0.000E+00  1.01884E+03  3.215E+00  4.662E+01  0.000E+00  2.072E+00
   1   13    4     8     3    2.1343E+02  1.9661E-18   2.1343E+02  0.000E+00  0.000E+00  0.000E+00  1.01258E+03  3.210E+00  4.654E+01  4.742E-19  1.382E+00
   1   13    3     8     4    2.1343E+02  2.9987E-07   2.1343E+02  0.000E+00  0.000E+00  0.000E+00  1.00634E+03  3.214E+00  4.661E+01  4.749E-07  2.105E-01
   1   13    2     8     5    2.1343E+02 -1.4986E+00   2.1493E+02  0.000E+00  0.000E+00  0.000E+00  1.00009E+03  3.219E+00  4.668E+01  4.757E+00 -1.050E-01
   1   13    1     8     6    2.1493E+02 -1.6771E+00   2.1660E+02  0.000E+00  0.000E+00  0.000E+00  9.95103E+02  3.228E+00  4.681E+01  2.862E+00 -1.953E-01
   1    6    8     9     1    5.0402E+00  0.0000E+00   5.0402E+00  0.000E+00  0.000E+00  0.000E+00  1.07886E+03  3.573E-01  4.000E+00  0.000E+00  1.119E+00





UNSATURATED ZONE PACKAGE VOLUMETRIC BUDGET FOR  TIME STEP    28 STRESS PERIOD   18
  ------------------------------------------------------------------------------



     CUMULATIVE VOLUMES      L**3       RATES FOR THIS TIME STEP      L**3/T
     ------------------                 ------------------------

           IN:                                      IN:
           ---                                      ---
        INFILTRATION =    72349903.6201          INFILTRATION =          27.8073

          OUT:                                     OUT:
          ----                                     ----
              UZF ET =   570734157.3731                UZF ET =           1.7161
        UZF RECHARGE =  1189429833.2006          UZF RECHARGE =          24.4870

            IN - OUT = -1687814086.9536              IN - OUT =           1.6043

          STORAGE:                                 STORAGE:
          --------                                 --------
      STORAGE CHANGE = -1687806299.1672        STORAGE CHANGE =           1.6043

 PERCENT DISCREPANCY IS DIFFERENCE BETWEEN IN-OUT MINUS CHANGE IN STORAGE
 DIVIDED BY THE AVERAGE OF IN AND OUT TIMES 100

 PERCENT DISCREPANCY =          -0.00     PERCENT DISCREPANCY =           0.00







         ****FAILED TO MEET SOLVER CONVERGENCE CRITERIA IN TIME STEP   28 OF STRESS PERIOD   18****
1
  VOLUMETRIC BUDGET FOR ENTIRE MODEL AT END OF TIME STEP   28, STRESS PERIOD  18
  ------------------------------------------------------------------------------

     CUMULATIVE VOLUMES      L**3       RATES FOR THIS TIME STEP      L**3/T
     ------------------                 ------------------------

           IN:                                      IN:
           ---                                      ---
             STORAGE =    19137434.0000               STORAGE =          10.4371
       CONSTANT HEAD =           0.0000         CONSTANT HEAD =           0.0000
               WELLS =           0.0000                 WELLS =           0.0000
     HEAD DEP BOUNDS =    48675848.0000       HEAD DEP BOUNDS =           0.9917
      STREAM LEAKAGE =   187924672.0000        STREAM LEAKAGE =           4.5315
        UZF RECHARGE =  1189430144.0000          UZF RECHARGE =          24.4870
               GW ET =           0.0000                 GW ET =           0.0000
     SURFACE LEAKAGE =           0.0000       SURFACE LEAKAGE =           0.0000

            TOTAL IN =  1445168128.0000              TOTAL IN =          40.4472

          OUT:                                     OUT:
          ----                                     ----
             STORAGE =  1268072448.0000               STORAGE =          25.2627
       CONSTANT HEAD =           0.0000         CONSTANT HEAD =           0.0000
               WELLS =     2019193.7500                 WELLS =          10.9598
     HEAD DEP BOUNDS =    13453674.0000       HEAD DEP BOUNDS =           0.2922
      STREAM LEAKAGE =   121038384.0000        STREAM LEAKAGE =           3.1757
        UZF RECHARGE =           0.0000          UZF RECHARGE =           0.0000
               GW ET =    40444208.0000                 GW ET =           0.7329
     SURFACE LEAKAGE =           0.0000       SURFACE LEAKAGE =           0.0000

           TOTAL OUT =  1445027840.0000             TOTAL OUT =          40.4233

            IN - OUT =      140288.0000              IN - OUT =       2.3891E-02

 PERCENT DISCREPANCY =           0.01     PERCENT DISCREPANCY =           0.06






         TIME SUMMARY AT END OF TIME STEP   28 IN STRESS PERIOD   18
                    SECONDS     MINUTES      HOURS       DAYS        YEARS
                    -----------------------------------------------------------
   TIME STEP LENGTH  87600.      1460.0      24.333      1.0139     2.77588E-03
 STRESS PERIOD TIME 2.45280E+06  40880.      681.33      28.389     7.77245E-02
         TOTAL TIME 4.71288E+07 7.85480E+05  13091.      545.47      1.4934    
1
 
 SOLVING FOR HEAD 
                                                   Max.-Head-Change                         Max.-Flux-Residual
  Residual-Control   Outer-Iter.   Inner-Iter.     Column Row Layer    Maximum-Head-Change  Column Row Layer    Maximum-Flux-Residual          L2-NORM 
          0                 1           2             7    6     1      -0.1889174305E+00       7    6    1        -0.1031478931E+02      0.1046239878E+02
          0                 2           2             7    6     1      -0.7288749793E-01       7    6    1        -0.3976484011E+01      0.3997533186E+01
          0                 3           2             7    6     1       0.7796577207E-02       7    6    1         0.4299359616E+00      0.4548500860E+00
          0                 4           2             8    2     1       0.4948263286E-03       8    2    1         0.1284920823E-01      0.6289202466E-01
          0                 5           2             7    6     1       0.5844292262E-03       7    6    1         0.3277838870E-01      0.4298956193E-01
          0                 6           2             7    6     1       0.5343578256E-03       7    6    1         0.2995958552E-01      0.3244711854E-01
          0                 7           2             7    6     1       0.5379164661E-03       7    6    1         0.3015753515E-01      0.3067794403E-01
          0                 8           2             7    6     1       0.5376715636E-03       7    6    1         0.3014332996E-01      0.3025769525E-01
          0                 9           2             7    6     1       0.5376891142E-03       7    6    1         0.3014402924E-01      0.3017622896E-01
          0                10           2             7    6     1       0.5376706671E-03       7    6    1         0.3014272496E-01      0.3015849659E-01
                                                   Max.-Head-Change                         Max.-Flux-Residual
  Residual-Control   Outer-Iter.   Inner-Iter.     Column Row Layer    Maximum-Head-Change  Column Row Layer    Maximum-Flux-Residual          L2-NORM 
          0                11           2             7    6     1       0.5376888185E-03       7    6    1         0.3014346884E-01      0.3015589322E-01
          0                12           2             7    6     1       0.5376874628E-03       7    6    1         0.3014311498E-01      0.3015487855E-01
          0                13           2             7    6     1       0.5376875191E-03       7    6    1         0.3014283843E-01      0.3015447936E-01
          0                14           2             7    6     1       0.5376874949E-03       7    6    1         0.3014255645E-01      0.3015416148E-01
          0                15           2             7    6     1       0.5376874850E-03       7    6    1         0.3014227485E-01      0.3015388716E-01
          0                16           2             7    6     1       0.5376874782E-03       7    6    1         0.3014199325E-01      0.3015358636E-01
          0                17           2             7    6     1       0.5376874732E-03       7    6    1         0.3014171166E-01      0.3015332257E-01
          0                18           2             7    6     1       0.5376874684E-03       7    6    1         0.3014143006E-01      0.3015302903E-01
          0                19           2             7    6     1       0.5376874644E-03       7    6    1         0.3014114848E-01      0.3015274263E-01
          0                20           2             7    6     1       0.5376874602E-03       7    6    1         0.3014086689E-01      0.3015247391E-01
                                                   Max.-Head-Change                         Max.-Flux-Residual
  Residual-Control   Outer-Iter.   Inner-Iter.     Column Row Layer    Maximum-Head-Change  Column Row Layer    Maximum-Flux-Residual          L2-NORM 
          0                21           2             7    6     1       0.5376874562E-03       7    6    1         0.3014058531E-01      0.3015219163E-01
          0                22           2             7    6     1       0.5376874518E-03       7    6    1         0.3014030373E-01      0.3015189117E-01
          0                23           2             7    6     1       0.5376874482E-03       7    6    1         0.3014002218E-01      0.3015162313E-01
          0                24           2             7    6     1       0.5376874441E-03       7    6    1         0.3013974060E-01      0.3015133246E-01
          0                25           2             7    6     1       0.5376874398E-03       7    6    1         0.3013945904E-01      0.3015105472E-01
          0                26           2             7    6     1       0.5376874362E-03       7    6    1         0.3013917750E-01      0.3015076760E-01
          0                27           2             7    6     1       0.5376874320E-03       7    6    1         0.3013889594E-01      0.3015049734E-01
          0                28           2             7    6     1       0.5376874275E-03       7    6    1         0.3013861440E-01      0.3015019254E-01
          0                29           2             7    6     1       0.5376874241E-03       7    6    1         0.3013833290E-01      0.3014993198E-01
          0                30           2             7    6     1       0.5376874195E-03       7    6    1         0.3013805135E-01      0.3014964520E-01
                                                   Max.-Head-Change                         Max.-Flux-Residual
  Residual-Control   Outer-Iter.   Inner-Iter.     Column Row Layer    Maximum-Head-Change  Column Row Layer    Maximum-Flux-Residual          L2-NORM 
          0                31           2             7    6     1       0.5376874161E-03       7    6    1         0.3013776985E-01      0.3014936067E-01
          0                32           2             7    6     1       0.5376874118E-03       7    6    1         0.3013748832E-01      0.3014909083E-01
          0                33           2             7    6     1       0.5376874081E-03       7    6    1         0.3013720681E-01      0.3014879291E-01
          0                34           2             7    6     1       0.5376874036E-03       7    6    1         0.3013692528E-01      0.3014850737E-01
          0                35           2             7    6     1       0.5376873999E-03       7    6    1         0.3013664379E-01      0.3014823762E-01
          0                36           2             7    6     1       0.5376873958E-03       7    6    1         0.3013636229E-01      0.3014795127E-01
          0                37           2             7    6     1       0.5376873919E-03       7    6    1         0.3013608080E-01      0.3014767282E-01
          0                38           2             7    6     1       0.5376873876E-03       7    6    1         0.3013579931E-01      0.3014735988E-01
          0                39           2             7    6     1       0.5376873838E-03       7    6    1         0.3013551784E-01      0.3014711659E-01
          0                40           2             7    6     1       0.5376873798E-03       7    6    1         0.3013523636E-01      0.3014682962E-01
                                                   Max.-Head-Change                         Max.-Flux-Residual
  Residual-Control   Outer-Iter.   Inner-Iter.     Column Row Layer    Maximum-Head-Change  Column Row Layer    Maximum-Flux-Residual          L2-NORM 
          0                41           2             7    6     1       0.5376873758E-03       7    6    1         0.3013495488E-01      0.3014653269E-01
          0                42           2             7    6     1       0.5376873716E-03       7    6    1         0.3013467341E-01      0.3014626870E-01
          0                43           2             7    6     1       0.5376873679E-03       7    6    1         0.3013439196E-01      0.3014597279E-01
          0                44           2             7    6     1       0.5376873635E-03       7    6    1         0.3013411049E-01      0.3014569299E-01
          0                45           2             7    6     1       0.5376873598E-03       7    6    1         0.3013382905E-01      0.3014541742E-01
          0                46           2             7    6     1       0.5376873558E-03       7    6    1         0.3013354760E-01      0.3014513030E-01
          0                47           2             7    6     1       0.5376873514E-03       7    6    1         0.3013326615E-01      0.3014486890E-01
          0                48           2             7    6     1       0.5376873477E-03       7    6    1         0.3013298473E-01      0.3014455536E-01
          0                49           2             7    6     1       0.5376873435E-03       7    6    1         0.3013270329E-01      0.3014428936E-01
          0                50           2             7    6     1       0.5376873396E-03       7    6    1         0.3013242187E-01      0.3014399268E-01
                                                   Max.-Head-Change                         Max.-Flux-Residual
  Residual-Control   Outer-Iter.   Inner-Iter.     Column Row Layer    Maximum-Head-Change  Column Row Layer    Maximum-Flux-Residual          L2-NORM 
          0                51           2             7    6     1       0.5376873354E-03       7    6    1         0.3013214046E-01      0.3014371431E-01
          0                52           2             7    6     1       0.5376873316E-03       7    6    1         0.3013185905E-01      0.3014346220E-01
          0                53           2             7    6     1       0.5376873276E-03       7    6    1         0.3013157764E-01      0.3014314422E-01
          0                54           2             7    6     1       0.5376873235E-03       7    6    1         0.3013129623E-01      0.3014286415E-01
          0                55           2             7    6     1       0.5376873196E-03       7    6    1         0.3013101484E-01      0.3014258594E-01
          0                56           2             7    6     1       0.5376873155E-03       7    6    1         0.3013073344E-01      0.3014234127E-01
          0                57           2             7    6     1       0.5376873112E-03       7    6    1         0.3013045205E-01      0.3014201362E-01
          0                58           2             7    6     1       0.5376873078E-03       7    6    1         0.3013017068E-01      0.3014174705E-01
          0                59           2             7    6     1       0.5376873033E-03       7    6    1         0.3012988929E-01      0.3014146290E-01
          0                60           2             7    6     1       0.5376872994E-03       7    6    1         0.3012960792E-01      0.3014116941E-01
                                                   Max.-Head-Change                         Max.-Flux-Residual
  Residual-Control   Outer-Iter.   Inner-Iter.     Column Row Layer    Maximum-Head-Change  Column Row Layer    Maximum-Flux-Residual          L2-NORM 
          0                61           2             7    6     1       0.5376872956E-03       7    6    1         0.3012932656E-01      0.3014090729E-01
          0                62           2             7    6     1       0.5376872912E-03       7    6    1         0.3012904519E-01      0.3014060130E-01
          0                63           2             7    6     1       0.5376872875E-03       7    6    1         0.3012876384E-01      0.3014037073E-01
          0                64           2             7    6     1       0.5376872834E-03       7    6    1         0.3012848248E-01      0.3014004348E-01
          0                65           2             7    6     1       0.5376872791E-03       7    6    1         0.3012820113E-01      0.3013976007E-01
          0                66           2             7    6     1       0.5376872755E-03       7    6    1         0.3012791980E-01      0.3013947726E-01
          0                67           2             7    6     1       0.5376872715E-03       7    6    1         0.3012763846E-01      0.3013922465E-01
          0                68           2             7    6     1       0.5376872671E-03       7    6    1         0.3012735712E-01      0.3013890612E-01
          0                69           2             7    6     1       0.5376872628E-03       7    6    1         0.3012707580E-01      0.3013866527E-01
          0                70           2             7    6     1       0.5376872594E-03       7    6    1         0.3012679450E-01      0.3013833886E-01
                                                   Max.-Head-Change                         Max.-Flux-Residual
  Residual-Control   Outer-Iter.   Inner-Iter.     Column Row Layer    Maximum-Head-Change  Column Row Layer    Maximum-Flux-Residual          L2-NORM 
          0                71           2             7    6     1       0.5376872554E-03       7    6    1         0.3012651318E-01      0.3013807795E-01
          0                72           2             7    6     1       0.5376872510E-03       7    6    1         0.3012623186E-01      0.3013781354E-01
          0                73           2             7    6     1       0.5376872475E-03       7    6    1         0.3012595058E-01      0.3013749844E-01
          0                74           2             7    6     1       0.5376872431E-03       7    6    1         0.3012566926E-01      0.3013722948E-01
          0                75           2             7    6     1       0.5376872392E-03       7    6    1         0.3012538797E-01      0.3013695276E-01
          0                76           2             7    6     1       0.5376872351E-03       7    6    1         0.3012510668E-01      0.3013668003E-01
          0                77           2             7    6     1       0.5376872311E-03       7    6    1         0.3012482540E-01      0.3013638628E-01
          0                78           2             7    6     1       0.5376872272E-03       7    6    1         0.3012454413E-01      0.3013609852E-01
          0                79           2             7    6     1       0.5376872229E-03       7    6    1         0.3012426285E-01      0.3013583396E-01
          0                80           2             7    6     1       0.5376872191E-03       7    6    1         0.3012398159E-01      0.3013554353E-01
                                                   Max.-Head-Change                         Max.-Flux-Residual
  Residual-Control   Outer-Iter.   Inner-Iter.     Column Row Layer    Maximum-Head-Change  Column Row Layer    Maximum-Flux-Residual          L2-NORM 
          0                81           2             7    6     1       0.5376872152E-03       7    6    1         0.3012370033E-01      0.3013525876E-01
          0                82           2             7    6     1       0.5376872112E-03       7    6    1         0.3012341907E-01      0.3013497132E-01
          0                83           2             7    6     1       0.5376872066E-03       7    6    1         0.3012313781E-01      0.3013468560E-01
          0                84           2             7    6     1       0.5376872031E-03       7    6    1         0.3012285659E-01      0.3013439764E-01
          0                85           2             7    6     1       0.5376871992E-03       7    6    1         0.3012257534E-01      0.3013413227E-01
          0                86           2             7    6     1       0.5376871948E-03       7    6    1         0.3012229409E-01      0.3013385919E-01
          0                87           2             7    6     1       0.5376871909E-03       7    6    1         0.3012201287E-01      0.3013356761E-01
          0                88           2             7    6     1       0.5376871870E-03       7    6    1         0.3012173165E-01      0.3013327634E-01
          0                89           2             7    6     1       0.5376871830E-03       7    6    1         0.3012145043E-01      0.3013301052E-01
          0                90           2             7    6     1       0.5376871787E-03       7    6    1         0.3012116920E-01      0.3013270836E-01
                                                   Max.-Head-Change                         Max.-Flux-Residual
  Residual-Control   Outer-Iter.   Inner-Iter.     Column Row Layer    Maximum-Head-Change  Column Row Layer    Maximum-Flux-Residual          L2-NORM 
          0                91           2             7    6     1       0.5376871749E-03       7    6    1         0.3012088801E-01      0.3013246359E-01
          0                92           2             7    6     1       0.5376871710E-03       7    6    1         0.3012060681E-01      0.3013213158E-01
          0                93           2             7    6     1       0.5376871669E-03       7    6    1         0.3012032560E-01      0.3013188607E-01
          0                94           2             7    6     1       0.5376871628E-03       7    6    1         0.3012004441E-01      0.3013161043E-01
          0                95           2             7    6     1       0.5376871589E-03       7    6    1         0.3011976322E-01      0.3013130662E-01
          0                96           2             7    6     1       0.5376871548E-03       7    6    1         0.3011948204E-01      0.3013104815E-01
          0                97           2             7    6     1       0.5376871509E-03       7    6    1         0.3011920086E-01      0.3013073526E-01
          0                98           2             7    6     1       0.5376871466E-03       7    6    1         0.3011891968E-01      0.3013044684E-01
          0                99           2             7    6     1       0.5376871430E-03       7    6    1         0.3011863853E-01      0.3013020407E-01
          0               100           2             7    6     1       0.5376871384E-03       7    6    1         0.3011835735E-01      0.3012991544E-01
                                                   Max.-Head-Change                         Max.-Flux-Residual
  Residual-Control   Outer-Iter.   Inner-Iter.     Column Row Layer    Maximum-Head-Change  Column Row Layer    Maximum-Flux-Residual          L2-NORM 
          0               101           2             7    6     1       0.5376871350E-03       7    6    1         0.3011807622E-01      0.3012959431E-01
          0               102           2             7    6     1       0.5376871307E-03       7    6    1         0.3011779506E-01      0.3012935481E-01
          0               103           2             7    6     1       0.5376871268E-03       7    6    1         0.3011751391E-01      0.3012905813E-01
          0               104           2             7    6     1       0.5376871226E-03       7    6    1         0.3011723276E-01      0.3012875757E-01
          0               105           2             7    6     1       0.5376871188E-03       7    6    1         0.3011695164E-01      0.3012853278E-01
          0               106           2             7    6     1       0.5376871144E-03       7    6    1         0.3011667050E-01      0.3012821608E-01
          0               107           2             7    6     1       0.5376871107E-03       7    6    1         0.3011638939E-01      0.3012790338E-01
          0               108           2             7    6     1       0.5376871068E-03       7    6    1         0.3011610827E-01      0.3012765095E-01
          0               109           2             7    6     1       0.5376871027E-03       7    6    1         0.3011582715E-01      0.3012735997E-01
          0               110           2             7    6     1       0.5376870985E-03       7    6    1         0.3011554603E-01      0.3012707580E-01
                                                   Max.-Head-Change                         Max.-Flux-Residual
  Residual-Control   Outer-Iter.   Inner-Iter.     Column Row Layer    Maximum-Head-Change  Column Row Layer    Maximum-Flux-Residual          L2-NORM 
          0               111           2             7    6     1       0.5376870945E-03       7    6    1         0.3011526493E-01      0.3012682099E-01
          0               112           2             7    6     1       0.5376870908E-03       7    6    1         0.3011498384E-01      0.3012651975E-01
          0               113           2             7    6     1       0.5376870863E-03       7    6    1         0.3011470273E-01      0.3012623079E-01
          0               114           2             7    6     1       0.5376870825E-03       7    6    1         0.3011442165E-01      0.3012596942E-01
          0               115           2             7    6     1       0.5376870786E-03       7    6    1         0.3011414058E-01      0.3012568730E-01
          0               116           2             7    6     1       0.5376870748E-03       7    6    1         0.3011385950E-01      0.3012536419E-01
          0               117           2             7    6     1       0.5376870701E-03       7    6    1         0.3011357841E-01      0.3012521344E-01
          0               118           2             7    6     1       0.5376870663E-03       7    6    1         0.3011329736E-01      0.3012474545E-01
          0               119           2             7    6     1       0.5376870628E-03       7    6    1         0.3011301631E-01      0.3012455464E-01
          0               120           2             7    6     1       0.5376870584E-03       7    6    1         0.3011273523E-01      0.3012426467E-01
                                                   Max.-Head-Change                         Max.-Flux-Residual
  Residual-Control   Outer-Iter.   Inner-Iter.     Column Row Layer    Maximum-Head-Change  Column Row Layer    Maximum-Flux-Residual          L2-NORM 
          0               121           2             7    6     1       0.5376870543E-03       7    6    1         0.3011245418E-01      0.3012400200E-01
          0               122           2             7    6     1       0.5376870505E-03       7    6    1         0.3011217314E-01      0.3012368026E-01
          0               123           2             7    6     1       0.5376870465E-03       7    6    1         0.3011189210E-01      0.3012342699E-01
          0               124           2             7    6     1       0.5376870420E-03       7    6    1         0.3011161105E-01      0.3012315390E-01
          0               125           2             7    6     1       0.5376870385E-03       7    6    1         0.3011133004E-01      0.3012284268E-01
          0               126           2             7    6     1       0.5376870347E-03       7    6    1         0.3011104901E-01      0.3012259448E-01
          0               127           2             7    6     1       0.5376870303E-03       7    6    1         0.3011076797E-01      0.3012227982E-01
          0               128           2             7    6     1       0.5376870265E-03       7    6    1         0.3011048696E-01      0.3012203498E-01
          0               129           2             7    6     1       0.5376870222E-03       7    6    1         0.3011020595E-01      0.3012170923E-01
          0               130           2             7    6     1       0.5376870180E-03       7    6    1         0.3010992495E-01      0.3012148767E-01
                                                   Max.-Head-Change                         Max.-Flux-Residual
  Residual-Control   Outer-Iter.   Inner-Iter.     Column Row Layer    Maximum-Head-Change  Column Row Layer    Maximum-Flux-Residual          L2-NORM 
          0               131           2             7    6     1       0.5376870144E-03       7    6    1         0.3010964397E-01      0.3012113843E-01
          0               132           2             7    6     1       0.5376870102E-03       7    6    1         0.3010936297E-01      0.3012088455E-01
          0               133           2             7    6     1       0.5376870064E-03       7    6    1         0.3010908198E-01      0.3012061771E-01
          0               134           2             7    6     1       0.5376870021E-03       7    6    1         0.3010880099E-01      0.3012030086E-01
          0               135           2             7    6     1       0.5376869983E-03       7    6    1         0.3010852002E-01      0.3012006075E-01
          0               136           2             7    6     1       0.5376869943E-03       7    6    1         0.3010823904E-01      0.3011975527E-01
          0               137           2             7    6     1       0.5376869898E-03       7    6    1         0.3010795807E-01      0.3011948686E-01
          0               138           2             7    6     1       0.5376869866E-03       7    6    1         0.3010767713E-01      0.3011921405E-01
          0               139           2             7    6     1       0.5376869822E-03       7    6    1         0.3010739615E-01      0.3011889193E-01
          0               140           2             7    6     1       0.5376869780E-03       7    6    1         0.3010711519E-01      0.3011863226E-01
                                                   Max.-Head-Change                         Max.-Flux-Residual
  Residual-Control   Outer-Iter.   Inner-Iter.     Column Row Layer    Maximum-Head-Change  Column Row Layer    Maximum-Flux-Residual          L2-NORM 
          0               141           2             7    6     1       0.5376869741E-03       7    6    1         0.3010683425E-01      0.3011836222E-01
          0               142           2             7    6     1       0.5376869702E-03       7    6    1         0.3010655331E-01      0.3011805988E-01
          0               143           2             7    6     1       0.5376869659E-03       7    6    1         0.3010627237E-01      0.3011780430E-01
          0               144           2             7    6     1       0.5376869624E-03       7    6    1         0.3010599145E-01      0.3011748746E-01
          0               145           2             7    6     1       0.5376869576E-03       7    6    1         0.3010571050E-01      0.3011725042E-01
          0               146           2             7    6     1       0.5376869540E-03       7    6    1         0.3010542961E-01      0.3011693218E-01
          0               147           2             7    6     1       0.5376869500E-03       7    6    1         0.3010514869E-01      0.3011666943E-01
          0               148           2             7    6     1       0.5376869461E-03       7    6    1         0.3010486778E-01      0.3011638976E-01
          0               149           2             7    6     1       0.5376869418E-03       7    6    1         0.3010458688E-01      0.3011609472E-01
          0               150           2             7    6     1       0.5376869381E-03       7    6    1         0.3010430599E-01      0.3011582815E-01
                                                   Max.-Head-Change                         Max.-Flux-Residual
  Residual-Control   Outer-Iter.   Inner-Iter.     Column Row Layer    Maximum-Head-Change  Column Row Layer    Maximum-Flux-Residual          L2-NORM 
          0               151           2             7    6     1       0.5376869341E-03       7    6    1         0.3010402509E-01      0.3011553245E-01
          0               152           2             7    6     1       0.5376869300E-03       7    6    1         0.3010374420E-01      0.3011524373E-01
          0               153           2             7    6     1       0.5376869261E-03       7    6    1         0.3010346331E-01      0.3011499897E-01
          0               154           2             7    6     1       0.5376869221E-03       7    6    1         0.3010318242E-01      0.3011466498E-01
          0               155           2             7    6     1       0.5376869176E-03       7    6    1         0.3010290154E-01      0.3011440836E-01
          0               156           2             7    6     1       0.5376869139E-03       7    6    1         0.3010262069E-01      0.3011414401E-01
          0               157           2             7    6     1       0.5376869100E-03       7    6    1         0.3010233983E-01      0.3011381857E-01
          0               158           2             7    6     1       0.5376869055E-03       7    6    1         0.3010205896E-01      0.3011358860E-01
          0               159           2             7    6     1       0.5376869018E-03       7    6    1         0.3010177813E-01      0.3011327200E-01
          0               160           2             7    6     1       0.5376868980E-03       7    6    1         0.3010149728E-01      0.3011301651E-01
                                                   Max.-Head-Change                         Max.-Flux-Residual
  Residual-Control   Outer-Iter.   Inner-Iter.     Column Row Layer    Maximum-Head-Change  Column Row Layer    Maximum-Flux-Residual          L2-NORM 
          0               161           2             7    6     1       0.5376868937E-03       7    6    1         0.3010121643E-01      0.3011269502E-01
          0               162           2             7    6     1       0.5376868897E-03       7    6    1         0.3010093560E-01      0.3011250856E-01
          0               163           2             7    6     1       0.5376868857E-03       7    6    1         0.3010065477E-01      0.3011212685E-01
          0               164           2             7    6     1       0.5376868815E-03       7    6    1         0.3010037394E-01      0.3011189504E-01
          0               165           2             7    6     1       0.5376868780E-03       7    6    1         0.3010009313E-01      0.3011158978E-01
          0               166           2             7    6     1       0.5376868738E-03       7    6    1         0.3009981230E-01      0.3011129825E-01
          0               167           2             7    6     1       0.5376868695E-03       7    6    1         0.3009953149E-01      0.3011104914E-01
          0               168           2             7    6     1       0.5376868658E-03       7    6    1         0.3009925069E-01      0.3011076180E-01
          0               169           2             7    6     1       0.5376868617E-03       7    6    1         0.3009896989E-01      0.3011045030E-01
          0               170           2             7    6     1       0.5376868576E-03       7    6    1         0.3009868909E-01      0.3011019947E-01
                                                   Max.-Head-Change                         Max.-Flux-Residual
  Residual-Control   Outer-Iter.   Inner-Iter.     Column Row Layer    Maximum-Head-Change  Column Row Layer    Maximum-Flux-Residual          L2-NORM 
          0               171           2             7    6     1       0.5376868538E-03       7    6    1         0.3009840831E-01      0.3010988644E-01
          0               172           2             7    6     1       0.5376868494E-03       7    6    1         0.3009812751E-01      0.3010963982E-01
          0               173           2             7    6     1       0.5376868460E-03       7    6    1         0.3009784675E-01      0.3010935759E-01
          0               174           2             7    6     1       0.5376868415E-03       7    6    1         0.3009756595E-01      0.3010903763E-01
          0               175           2             7    6     1       0.5376868373E-03       7    6    1         0.3009728519E-01      0.3010877937E-01
          0               176           2             7    6     1       0.5376868336E-03       7    6    1         0.3009700445E-01      0.3010849129E-01
          0               177           2             7    6     1       0.5376868296E-03       7    6    1         0.3009672368E-01      0.3010825249E-01
          0               178           2             7    6     1       0.5376868255E-03       7    6    1         0.3009644293E-01      0.3010794169E-01
          0               179           2             7    6     1       0.5376868218E-03       7    6    1         0.3009616218E-01      0.3010763140E-01
          0               180           2             7    6     1       0.5376868174E-03       7    6    1         0.3009588143E-01      0.3010736399E-01
                                                   Max.-Head-Change                         Max.-Flux-Residual
  Residual-Control   Outer-Iter.   Inner-Iter.     Column Row Layer    Maximum-Head-Change  Column Row Layer    Maximum-Flux-Residual          L2-NORM 
          0               181           2             7    6     1       0.5376868134E-03       7    6    1         0.3009560069E-01      0.3010714729E-01
          0               182           2             7    6     1       0.5376868095E-03       7    6    1         0.3009531996E-01      0.3010676052E-01
          0               183           2             7    6     1       0.5376868055E-03       7    6    1         0.3009503923E-01      0.3010654412E-01
          0               184           2             7    6     1       0.5376868012E-03       7    6    1         0.3009475851E-01      0.3010624473E-01
          0               185           2             7    6     1       0.5376867972E-03       7    6    1         0.3009447780E-01      0.3010597989E-01
          0               186           2             7    6     1       0.5376867936E-03       7    6    1         0.3009419711E-01      0.3010565934E-01
          0               187           2             7    6     1       0.5376867893E-03       7    6    1         0.3009391639E-01      0.3010542233E-01
          0               188           2             7    6     1       0.5376867857E-03       7    6    1         0.3009363569E-01      0.3010511943E-01
          0               189           2             7    6     1       0.5376867808E-03       7    6    1         0.3009335498E-01      0.3010484788E-01
          0               190           2             7    6     1       0.5376867774E-03       7    6    1         0.3009307432E-01      0.3010453911E-01
                                                   Max.-Head-Change                         Max.-Flux-Residual
  Residual-Control   Outer-Iter.   Inner-Iter.     Column Row Layer    Maximum-Head-Change  Column Row Layer    Maximum-Flux-Residual          L2-NORM 
          0               191           2             7    6     1       0.5376867736E-03       7    6    1         0.3009279363E-01      0.3010428393E-01
          0               192           2             7    6     1       0.5376867693E-03       7    6    1         0.3009251294E-01      0.3010398300E-01
          0               193           2             7    6     1       0.5376867652E-03       7    6    1         0.3009223226E-01      0.3010372664E-01
          0               194           2             7    6     1       0.5376867609E-03       7    6    1         0.3009195160E-01      0.3010343266E-01
          0               195           2             7    6     1       0.5376867578E-03       7    6    1         0.3009167095E-01      0.3010315429E-01
          0               196           2             7    6     1       0.5376867528E-03       7    6    1         0.3009139026E-01      0.3010288814E-01
          0               197           2             7    6     1       0.5376867497E-03       7    6    1         0.3009110963E-01      0.3010258102E-01
          0               198           2             7    6     1       0.5376867449E-03       7    6    1         0.3009082895E-01      0.3010230849E-01
          0               199           2             7    6     1       0.5376867413E-03       7    6    1         0.3009054833E-01      0.3010202482E-01
          0               200           2             7    6     1       0.5376867370E-03       7    6    1         0.3009026769E-01      0.3010174475E-01

    ------------------------------------------------
       NWT REQUIRED          200 OUTER ITERATIONS 
       AND A TOTAL OF        400 INNER ITERATIONS.
    ------------------------------------------------

 NO OUTPUT CONTROL FOR STRESS PERIOD   18   TIME STEP   29



 STREAM LISTING     PERIOD     18   STEP       29

 LAYER ROW COL. STREAM  RCH.  FLOW INTO     FLOW TO   FLOW OUT OF   OVRLND.     DIRECT     STREAM       STREAM     STREAM     STREAM   STREAMBED  STREAMBED
                SEG.NO.  NO.  STRM. RCH.    AQUIFER    STRM. RCH.    RUNOFF     PRECIP       ET          HEAD       DEPTH      WIDTH   CONDCTNC.   GRADIENT

   1    1    1     1     1    6.3000E+01  3.8236E-09   6.3000E+01  0.000E+00  0.000E+00  0.000E+00  1.09461E+03  1.562E+00  1.863E+01  8.382E-10  1.521E+00
   1    2    2     1     2    6.3000E+01  5.9422E-09   6.3000E+01  0.000E+00  0.000E+00  0.000E+00  1.08962E+03  1.560E+00  1.861E+01  1.303E-09  1.520E+00
   1    3    3     1     3    6.3000E+01  5.0953E-09   6.3000E+01  0.000E+00  0.000E+00  0.000E+00  1.08398E+03  1.561E+00  1.862E+01  1.117E-09  1.520E+00
   1    3    4     1     4    6.3000E+01  4.7139E-09   6.3000E+01  0.000E+00  0.000E+00  0.000E+00  1.07897E+03  1.561E+00  1.862E+01  1.034E-09  1.520E+00
   1    4    5     2     1    6.1000E+01  3.9454E-01   6.0605E+01  0.000E+00  0.000E+00  0.000E+00  1.07399E+03  2.058E+00  1.200E+01  7.800E-02  1.686E+00
   1    5    6     2     2    6.0605E+01  3.0307E-01   6.0302E+01  0.000E+00  0.000E+00  0.000E+00  1.06856E+03  2.051E+00  1.200E+01  6.000E-02  1.684E+00
   1    6    6     2     3    6.0302E+01  3.0270E-01   6.0000E+01  0.000E+00  0.000E+00  0.000E+00  1.06384E+03  2.045E+00  1.200E+01  6.000E-02  1.682E+00
   1    7    6     2     4    6.0000E+01  3.0233E-01   5.9697E+01  0.000E+00  0.000E+00  0.000E+00  1.05911E+03  2.039E+00  1.200E+01  6.000E-02  1.680E+00
   1    8    6     2     5    5.9697E+01  3.0196E-01   5.9395E+01  0.000E+00  0.000E+00  0.000E+00  1.05439E+03  2.033E+00  1.200E+01  6.000E-02  1.678E+00
   1    3    5     3     1    2.0000E+00  2.8252E-01   1.7175E+00  0.000E+00  0.000E+00  0.000E+00  1.07555E+03  1.909E+00  9.636E+00  7.227E-02  1.955E+00
   1    3    6     3     2    1.7175E+00  2.4905E-01   1.4684E+00  0.000E+00  0.000E+00  0.000E+00  1.07264E+03  1.727E+00  8.909E+00  6.682E-02  1.864E+00
   1    3    7     3     3    1.4684E+00  1.9718E-01   1.2712E+00  0.000E+00  0.000E+00  0.000E+00  1.06987E+03  1.555E+00  8.218E+00  5.547E-02  1.777E+00
   1    4    8     3     4    1.2712E+00  2.2567E-01   1.0456E+00  0.000E+00  0.000E+00  0.000E+00  1.06682E+03  1.364E+00  7.455E+00  6.709E-02  1.682E+00
   1    5    8     3     5    1.0456E+00  1.5790E-01   8.8768E-01  0.000E+00  0.000E+00  0.000E+00  1.06362E+03  1.164E+00  6.655E+00  4.991E-02  1.582E+00
   1    6    8     3     6    8.8768E-01  5.5980E-02   8.3170E-01  0.000E+00  0.000E+00  0.000E+00  1.06158E+03  1.036E+00  6.145E+00  1.844E-02  1.518E+00
   1    5   10     4     1    1.0000E+01  9.0919E-02   9.9091E+00  0.000E+00  0.000E+00  0.000E+00  1.07836E+03  6.368E-01  1.000E+01  2.500E-02  1.212E+00
   1    5    9     4     2    9.9091E+00  1.8158E-01   9.7275E+00  0.000E+00  0.000E+00  0.000E+00  1.07154E+03  6.315E-01  1.000E+01  5.000E-02  1.211E+00
   1    6    8     4     3    9.7275E+00  1.2689E-01   9.6006E+00  0.000E+00  0.000E+00  0.000E+00  1.06381E+03  6.256E-01  1.000E+01  3.500E-02  1.209E+00
   1    6    8     5     1    1.0432E+01  2.2686E-09   1.0432E+01  0.000E+00  0.000E+00  0.000E+00  1.05868E+03  6.790E-01  1.542E+01  6.166E-10  1.226E+00
   1    7    7     5     2    1.0432E+01  2.8306E-09   1.0432E+01  0.000E+00  0.000E+00  0.000E+00  1.05418E+03  6.784E-01  1.539E+01  7.695E-10  1.226E+00
   1    8    7     5     3    1.0432E+01  1.9868E-09   1.0432E+01  0.000E+00  0.000E+00  0.000E+00  1.04993E+03  6.794E-01  1.543E+01  5.400E-10  1.226E+00
   1    8    6     5     4    1.0432E+01  1.4217E-09   1.0432E+01  0.000E+00  0.000E+00  0.000E+00  1.04693E+03  6.800E-01  1.545E+01  3.863E-10  1.227E+00
   1    9    6     6     1    6.3375E+01  3.0783E-01   6.3067E+01  0.000E+00  0.000E+00  0.000E+00  1.04486E+03  2.131E+00  1.200E+01  6.000E-02  1.710E+00
   1   10    7     6     2    6.3067E+01  3.0746E-01   6.2760E+01  0.000E+00  0.000E+00  0.000E+00  1.04031E+03  2.124E+00  1.200E+01  6.000E-02  1.708E+00
   1   11    7     6     3    6.2760E+01  3.0708E-01   6.2453E+01  0.000E+00  0.000E+00  0.000E+00  1.03575E+03  2.118E+00  1.200E+01  6.000E-02  1.706E+00
   1   12    7     6     4    6.2453E+01  3.0671E-01   6.2146E+01  0.000E+00  0.000E+00  0.000E+00  1.03120E+03  2.112E+00  1.200E+01  6.000E-02  1.704E+00
   1   13    7     6     5    6.2146E+01  1.2258E-01   6.2023E+01  0.000E+00  0.000E+00  0.000E+00  1.02802E+03  2.107E+00  1.200E+01  2.400E-02  1.702E+00
   1   14    9     7     1    1.5000E+02  2.9539E-08   1.5000E+02  0.000E+00  0.000E+00  0.000E+00  1.03986E+03  2.283E+00  5.528E+01  5.591E-09  1.761E+00
   1   13    8     7     2    1.5000E+02  3.2486E-14   1.5000E+02  0.000E+00  0.000E+00  0.000E+00  1.03478E+03  2.283E+00  5.527E+01  6.150E-15  1.761E+00
   1   13    7     7     3    1.5000E+02  2.9539E-08   1.5000E+02  0.000E+00  0.000E+00  0.000E+00  1.02970E+03  2.283E+00  5.528E+01  5.591E-09  1.761E+00
   1   13    6     8     1    2.1202E+02  2.9299E-10   2.1202E+02  0.000E+00  0.000E+00  0.000E+00  1.02507E+03  3.199E+00  4.638E+01  4.727E-11  2.066E+00
   1   13    5     8     2    2.1202E+02  2.9299E-21   2.1202E+02  0.000E+00  0.000E+00  0.000E+00  1.01882E+03  3.199E+00  4.638E+01  4.727E-22  2.066E+00
   1   13    4     8     3    2.1202E+02  1.9561E-14   2.1202E+02  0.000E+00  0.000E+00  0.000E+00  1.01258E+03  3.202E+00  4.642E+01  4.731E-15  1.378E+00
   1   13    3     8     4    2.1202E+02  2.9471E-07   2.1202E+02  0.000E+00  0.000E+00  0.000E+00  1.00633E+03  3.206E+00  4.649E+01  4.738E-07  2.074E-01
   1   13    2     8     5    2.1202E+02 -1.5247E+00   2.1355E+02  0.000E+00  0.000E+00  0.000E+00  1.00009E+03  3.211E+00  4.657E+01  4.745E+00 -1.071E-01
   1   13    1     8     6    2.1355E+02 -1.6928E+00   2.1524E+02  0.000E+00  0.000E+00  0.000E+00  9.95096E+02  3.221E+00  4.670E+01  2.855E+00 -1.976E-01
   1    6    8     9     1    6.4528E+00  0.0000E+00   6.4528E+00  0.000E+00  0.000E+00  0.000E+00  1.07891E+03  4.143E-01  4.000E+00  0.000E+00  1.138E+00





UNSATURATED ZONE PACKAGE VOLUMETRIC BUDGET FOR  TIME STEP    29 STRESS PERIOD   18
  ------------------------------------------------------------------------------



     CUMULATIVE VOLUMES      L**3       RATES FOR THIS TIME STEP      L**3/T
     ------------------                 ------------------------

           IN:                                      IN:
           ---                                      ---
        INFILTRATION =    74662083.8701          INFILTRATION =          26.3948

          OUT:                                     OUT:
          ----                                     ----
              UZF ET =   570884046.3248                UZF ET =           1.7111
        UZF RECHARGE =  1191561373.1019          UZF RECHARGE =          24.3326

            IN - OUT = -1687783335.5565              IN - OUT =           0.3510

          STORAGE:                                 STORAGE:
          --------                                 --------
      STORAGE CHANGE = -1687775658.0670        STORAGE CHANGE =           0.3498

 PERCENT DISCREPANCY IS DIFFERENCE BETWEEN IN-OUT MINUS CHANGE IN STORAGE
 DIVIDED BY THE AVERAGE OF IN AND OUT TIMES 100

 PERCENT DISCREPANCY =          -0.00     PERCENT DISCREPANCY =           0.00







         ****FAILED TO MEET SOLVER CONVERGENCE CRITERIA IN TIME STEP   29 OF STRESS PERIOD   18****
1
  VOLUMETRIC BUDGET FOR ENTIRE MODEL AT END OF TIME STEP   29, STRESS PERIOD  18
  ------------------------------------------------------------------------------

     CUMULATIVE VOLUMES      L**3       RATES FOR THIS TIME STEP      L**3/T
     ------------------                 ------------------------

           IN:                                      IN:
           ---                                      ---
             STORAGE =    19894386.0000               STORAGE =           8.6410
       CONSTANT HEAD =           0.0000         CONSTANT HEAD =           0.0000
               WELLS =           0.0000                 WELLS =           0.0000
     HEAD DEP BOUNDS =    48762712.0000       HEAD DEP BOUNDS =           0.9916
      STREAM LEAKAGE =   188320976.0000        STREAM LEAKAGE =           4.5240
        UZF RECHARGE =  1191561728.0000          UZF RECHARGE =          24.3326
               GW ET =           0.0000                 GW ET =           0.0000
     SURFACE LEAKAGE =           0.0000       SURFACE LEAKAGE =           0.0000

            TOTAL IN =  1448539776.0000              TOTAL IN =          38.4892

          OUT:                                     OUT:
          ----                                     ----
             STORAGE =  1270233472.0000               STORAGE =          24.6689
       CONSTANT HEAD =           0.0000         CONSTANT HEAD =           0.0000
               WELLS =     2855532.7500                 WELLS =           9.5472
     HEAD DEP BOUNDS =    13479267.0000       HEAD DEP BOUNDS =           0.2922
      STREAM LEAKAGE =   121320232.0000        STREAM LEAKAGE =           3.2175
        UZF RECHARGE =           0.0000          UZF RECHARGE =           0.0000
               GW ET =    40508408.0000                 GW ET =           0.7329
     SURFACE LEAKAGE =           0.0000       SURFACE LEAKAGE =           0.0000

           TOTAL OUT =  1448396928.0000             TOTAL OUT =          38.4586

            IN - OUT =      142848.0000              IN - OUT =       3.0609E-02

 PERCENT DISCREPANCY =           0.01     PERCENT DISCREPANCY =           0.08






         TIME SUMMARY AT END OF TIME STEP   29 IN STRESS PERIOD   18
                    SECONDS     MINUTES      HOURS       DAYS        YEARS
                    -----------------------------------------------------------
   TIME STEP LENGTH  87600.      1460.0      24.333      1.0139     2.77588E-03
 STRESS PERIOD TIME 2.54040E+06  42340.      705.67      29.403     8.05004E-02
         TOTAL TIME 4.72164E+07 7.86940E+05  13116.      546.49      1.4962    
1
 
 SOLVING FOR HEAD 
                                                   Max.-Head-Change                         Max.-Flux-Residual
  Residual-Control   Outer-Iter.   Inner-Iter.     Column Row Layer    Maximum-Head-Change  Column Row Layer    Maximum-Flux-Residual          L2-NORM 
          0                 1           2             7    6     1      -0.1552418100E+00       7    6    1        -0.8472540812E+01      0.8645562207E+01
          0                 2           2             7    6     1      -0.1021630706E+00       7    6    1        -0.5573256509E+01      0.5588278489E+01
          0                 3           2             7    6     1       0.1069024524E-01       7    6    1         0.5895750970E+00      0.6086362018E+00
          0                 4           2             8    2     1       0.4946335822E-03       7    6    1        -0.2082039932E-01      0.6590842434E-01
          0                 5           2             7    6     1       0.6045722723E-03       7    6    1         0.3391381855E-01      0.4384755969E-01
          0                 6           2             7    6     1       0.5326288784E-03       7    6    1         0.2986355808E-01      0.3235397984E-01
          0                 7           2             7    6     1       0.5377455123E-03       7    6    1         0.3014823073E-01      0.3066780599E-01
          0                 8           2             7    6     1       0.5373773494E-03       7    6    1         0.3012699856E-01      0.3024113145E-01
          0                 9           2             7    6     1       0.5374211097E-03       7    6    1         0.3012914931E-01      0.3016130088E-01
          0                10           2             7    6     1       0.5374179214E-03       7    6    1         0.3012869722E-01      0.3014435954E-01
                                                   Max.-Head-Change                         Max.-Flux-Residual
  Residual-Control   Outer-Iter.   Inner-Iter.     Column Row Layer    Maximum-Head-Change  Column Row Layer    Maximum-Flux-Residual          L2-NORM 
          0                11           2             7    6     1       0.5374180100E-03       7    6    1         0.3012842759E-01      0.3014078295E-01
          0                12           2             7    6     1       0.5374009188E-03       7    6    1         0.3012719149E-01      0.3013889305E-01
          0                13           2             7    6     1       0.5374190884E-03       7    6    1         0.3012793079E-01      0.3013950335E-01
          0                14           2             7    6     1       0.5374177926E-03       7    6    1         0.3012757749E-01      0.3013911312E-01
          0                15           2             7    6     1       0.5374178722E-03       7    6    1         0.3012730104E-01      0.3013880662E-01
          0                16           2             7    6     1       0.5374008505E-03       7    6    1         0.3012606556E-01      0.3013759787E-01
          0                17           2             7    6     1       0.5374190500E-03       7    6    1         0.3012680493E-01      0.3013833758E-01
          0                18           2             7    6     1       0.5374177655E-03       7    6    1         0.3012645159E-01      0.3013797996E-01
          0                19           2             7    6     1       0.5374178519E-03       7    6    1         0.3012617521E-01      0.3013768995E-01
          0                20           2             7    6     1       0.5374008314E-03       7    6    1         0.3012493973E-01      0.3013646108E-01
                                                   Max.-Head-Change                         Max.-Flux-Residual
  Residual-Control   Outer-Iter.   Inner-Iter.     Column Row Layer    Maximum-Head-Change  Column Row Layer    Maximum-Flux-Residual          L2-NORM 
          0                21           2             7    6     1       0.5374190332E-03       7    6    1         0.3012567917E-01      0.3013720196E-01
          0                22           2             7    6     1       0.5374177495E-03       7    6    1         0.3012532585E-01      0.3013686163E-01
          0                23           2             7    6     1       0.5374178354E-03       7    6    1         0.3012504946E-01      0.3013680777E-01
          0                24           2             7    6     1       0.5374008148E-03       7    6    1         0.3012381402E-01      0.3013509485E-01
          0                25           2             7    6     1       0.5374190184E-03       7    6    1         0.3012455352E-01      0.3013610465E-01
          0                26           2             7    6     1       0.5374177329E-03       7    6    1         0.3012420013E-01      0.3013568670E-01
          0                27           2             7    6     1       0.5374178191E-03       7    6    1         0.3012392380E-01      0.3013544715E-01
          0                28           2             7    6     1       0.5374007986E-03       7    6    1         0.3012268840E-01      0.3013421295E-01
          0                29           2             7    6     1       0.5374190028E-03       7    6    1         0.3012342793E-01      0.3013494901E-01
          0                30           2             7    6     1       0.5374177166E-03       7    6    1         0.3012307454E-01      0.3013459164E-01
                                                   Max.-Head-Change                         Max.-Flux-Residual
  Residual-Control   Outer-Iter.   Inner-Iter.     Column Row Layer    Maximum-Head-Change  Column Row Layer    Maximum-Flux-Residual          L2-NORM 
          0                31           2             7    6     1       0.5374178038E-03       7    6    1         0.3012279824E-01      0.3013431416E-01
          0                32           2             7    6     1       0.5374007812E-03       7    6    1         0.3012156281E-01      0.3013306442E-01
          0                33           2             7    6     1       0.5374189876E-03       7    6    1         0.3012230243E-01      0.3013383755E-01
          0                34           2             7    6     1       0.5374177005E-03       7    6    1         0.3012194901E-01      0.3013346035E-01
          0                35           2             7    6     1       0.5374177873E-03       7    6    1         0.3012167274E-01      0.3013319662E-01
          0                36           2             7    6     1       0.5374177774E-03       7    6    1         0.3012139103E-01      0.3013288870E-01
          0                37           2             7    6     1       0.5374007610E-03       7    6    1         0.3012015601E-01      0.3013168021E-01
          0                38           2             7    6     1       0.5374189682E-03       7    6    1         0.3012089567E-01      0.3013240889E-01
          0                39           2             7    6     1       0.5374176806E-03       7    6    1         0.3012054225E-01      0.3013203782E-01
          0                40           2             7    6     1       0.5374007542E-03       7    6    1         0.3011931231E-01      0.3013083222E-01
                                                   Max.-Head-Change                         Max.-Flux-Residual
  Residual-Control   Outer-Iter.   Inner-Iter.     Column Row Layer    Maximum-Head-Change  Column Row Layer    Maximum-Flux-Residual          L2-NORM 
          0                41           2             7    6     1       0.5374189564E-03       7    6    1         0.3012005168E-01      0.3013155027E-01
          0                42           2             7    6     1       0.5374176685E-03       7    6    1         0.3011969824E-01      0.3013120881E-01
          0                43           2             7    6     1       0.5374177551E-03       7    6    1         0.3011942200E-01      0.3013094616E-01
          0                44           2             7    6     1       0.5374177448E-03       7    6    1         0.3011914034E-01      0.3013064457E-01
          0                45           2             7    6     1       0.5374007281E-03       7    6    1         0.3011790539E-01      0.3012940482E-01
          0                46           2             7    6     1       0.5374189379E-03       7    6    1         0.3011864515E-01      0.3013014983E-01
          0                47           2             7    6     1       0.5374176479E-03       7    6    1         0.3011829166E-01      0.3012979802E-01
          0                48           2             7    6     1       0.5374007210E-03       7    6    1         0.3011706180E-01      0.3012858273E-01
          0                49           2             7    6     1       0.5374189259E-03       7    6    1         0.3011780127E-01      0.3012931067E-01
          0                50           2             7    6     1       0.5374176360E-03       7    6    1         0.3011744779E-01      0.3012897323E-01
                                                   Max.-Head-Change                         Max.-Flux-Residual
  Residual-Control   Outer-Iter.   Inner-Iter.     Column Row Layer    Maximum-Head-Change  Column Row Layer    Maximum-Flux-Residual          L2-NORM 
          0                51           2             7    6     1       0.5374177231E-03       7    6    1         0.3011717162E-01      0.3012867262E-01
          0                52           2             7    6     1       0.5374177131E-03       7    6    1         0.3011688999E-01      0.3012838863E-01
          0                53           2             7    6     1       0.5374006944E-03       7    6    1         0.3011565507E-01      0.3012717010E-01
          0                54           2             7    6     1       0.5374189069E-03       7    6    1         0.3011639496E-01      0.3012788001E-01
          0                55           2             7    6     1       0.5374176160E-03       7    6    1         0.3011604144E-01      0.3012754858E-01
          0                56           2             7    6     1       0.5374006874E-03       7    6    1         0.3011481162E-01      0.3012630453E-01
          0                57           2             7    6     1       0.5374188951E-03       7    6    1         0.3011555122E-01      0.3012707259E-01
          0                58           2             7    6     1       0.5374176037E-03       7    6    1         0.3011519769E-01      0.3012669002E-01
          0                59           2             7    6     1       0.5374176917E-03       7    6    1         0.3011492157E-01      0.3012641767E-01
          0                60           2             7    6     1       0.5374176806E-03       7    6    1         0.3011463995E-01      0.3012612951E-01
                                                   Max.-Head-Change                         Max.-Flux-Residual
  Residual-Control   Outer-Iter.   Inner-Iter.     Column Row Layer    Maximum-Head-Change  Column Row Layer    Maximum-Flux-Residual          L2-NORM 
          0                61           2             7    6     1       0.5374006609E-03       7    6    1         0.3011340508E-01      0.3012491017E-01
          0                62           2             7    6     1       0.5374188764E-03       7    6    1         0.3011414511E-01      0.3012563559E-01
          0                63           2             7    6     1       0.5374175833E-03       7    6    1         0.3011379153E-01      0.3012529345E-01
          0                64           2             7    6     1       0.5374176713E-03       7    6    1         0.3011351546E-01      0.3012500367E-01
          0                65           2             7    6     1       0.5374176609E-03       7    6    1         0.3011323387E-01      0.3012472612E-01
          0                66           2             7    6     1       0.5374176571E-03       7    6    1         0.3011295269E-01      0.3012445531E-01
          0                67           2             7    6     1       0.5374176528E-03       7    6    1         0.3011267149E-01      0.3012415896E-01
          0                68           2             7    6     1       0.5374176495E-03       7    6    1         0.3011239032E-01      0.3012389200E-01
          0                69           2             7    6     1       0.5374176447E-03       7    6    1         0.3011210911E-01      0.3012363056E-01
          0                70           2             7    6     1       0.5374176411E-03       7    6    1         0.3011182795E-01      0.3012331095E-01
                                                   Max.-Head-Change                         Max.-Flux-Residual
  Residual-Control   Outer-Iter.   Inner-Iter.     Column Row Layer    Maximum-Head-Change  Column Row Layer    Maximum-Flux-Residual          L2-NORM 
          0                71           2             7    6     1       0.5374176373E-03       7    6    1         0.3011154678E-01      0.3012302790E-01
          0                72           2             7    6     1       0.5374176331E-03       7    6    1         0.3011126559E-01      0.3012276714E-01
          0                73           2             7    6     1       0.5374176292E-03       7    6    1         0.3011098443E-01      0.3012248152E-01
          0                74           2             7    6     1       0.5374176248E-03       7    6    1         0.3011070327E-01      0.3012219137E-01
          0                75           2             7    6     1       0.5374176213E-03       7    6    1         0.3011042213E-01      0.3012191446E-01
          0                76           2             7    6     1       0.5374176169E-03       7    6    1         0.3011014096E-01      0.3012162690E-01
          0                77           2             7    6     1       0.5374176130E-03       7    6    1         0.3010985982E-01      0.3012132818E-01
          0                78           2             7    6     1       0.5374176089E-03       7    6    1         0.3010957868E-01      0.3012107216E-01
          0                79           2             7    6     1       0.5374176054E-03       7    6    1         0.3010929756E-01      0.3012078269E-01
          0                80           2             7    6     1       0.5374176009E-03       7    6    1         0.3010901641E-01      0.3012049126E-01
                                                   Max.-Head-Change                         Max.-Flux-Residual
  Residual-Control   Outer-Iter.   Inner-Iter.     Column Row Layer    Maximum-Head-Change  Column Row Layer    Maximum-Flux-Residual          L2-NORM 
          0                81           2             7    6     1       0.5374175971E-03       7    6    1         0.3010873530E-01      0.3012022520E-01
          0                82           2             7    6     1       0.5374175928E-03       7    6    1         0.3010845417E-01      0.3011991921E-01
          0                83           2             7    6     1       0.5374175887E-03       7    6    1         0.3010817307E-01      0.3011967440E-01
          0                84           2             7    6     1       0.5374175850E-03       7    6    1         0.3010789197E-01      0.3011936804E-01
          0                85           2             7    6     1       0.5374175811E-03       7    6    1         0.3010761087E-01      0.3011911343E-01
          0                86           2             7    6     1       0.5374175768E-03       7    6    1         0.3010732976E-01      0.3011878294E-01
          0                87           2             7    6     1       0.5374175732E-03       7    6    1         0.3010704868E-01      0.3011853029E-01
          0                88           2             7    6     1       0.5374175687E-03       7    6    1         0.3010676758E-01      0.3011823820E-01
          0                89           2             7    6     1       0.5374175651E-03       7    6    1         0.3010648651E-01      0.3011798220E-01
          0                90           2             7    6     1       0.5374175606E-03       7    6    1         0.3010620542E-01      0.3011768293E-01
                                                   Max.-Head-Change                         Max.-Flux-Residual
  Residual-Control   Outer-Iter.   Inner-Iter.     Column Row Layer    Maximum-Head-Change  Column Row Layer    Maximum-Flux-Residual          L2-NORM 
          0                91           2             7    6     1       0.5374175572E-03       7    6    1         0.3010592436E-01      0.3011739849E-01
          0                92           2             7    6     1       0.5374175524E-03       7    6    1         0.3010564327E-01      0.3011715958E-01
          0                93           2             7    6     1       0.5374175491E-03       7    6    1         0.3010536224E-01      0.3011679063E-01
          0                94           2             7    6     1       0.5374175447E-03       7    6    1         0.3010508117E-01      0.3011656382E-01
          0                95           2             7    6     1       0.5374175408E-03       7    6    1         0.3010480013E-01      0.3011632986E-01
          0                96           2             7    6     1       0.5374175368E-03       7    6    1         0.3010451908E-01      0.3011596593E-01
          0                97           2             7    6     1       0.5374175326E-03       7    6    1         0.3010423804E-01      0.3011568558E-01
          0                98           2             7    6     1       0.5374175288E-03       7    6    1         0.3010395701E-01      0.3011543600E-01
          0                99           2             7    6     1       0.5374175250E-03       7    6    1         0.3010367598E-01      0.3011512601E-01
          0               100           2             7    6     1       0.5374175203E-03       7    6    1         0.3010339494E-01      0.3011489224E-01
                                                   Max.-Head-Change                         Max.-Flux-Residual
  Residual-Control   Outer-Iter.   Inner-Iter.     Column Row Layer    Maximum-Head-Change  Column Row Layer    Maximum-Flux-Residual          L2-NORM 
          0               101           2             7    6     1       0.5374175169E-03       7    6    1         0.3010311395E-01      0.3011457372E-01
          0               102           2             7    6     1       0.5374175125E-03       7    6    1         0.3010283292E-01      0.3011429917E-01
          0               103           2             7    6     1       0.5374175089E-03       7    6    1         0.3010255193E-01      0.3011402578E-01
          0               104           2             7    6     1       0.5374175047E-03       7    6    1         0.3010227091E-01      0.3011373549E-01
          0               105           2             7    6     1       0.5374175009E-03       7    6    1         0.3010198992E-01      0.3011346778E-01
          0               106           2             7    6     1       0.5374174965E-03       7    6    1         0.3010170891E-01      0.3011318123E-01
          0               107           2             7    6     1       0.5374174929E-03       7    6    1         0.3010142793E-01      0.3011286437E-01
          0               108           2             7    6     1       0.5374174885E-03       7    6    1         0.3010114694E-01      0.3011264367E-01
          0               109           2             7    6     1       0.5374174847E-03       7    6    1         0.3010086597E-01      0.3011230314E-01
          0               110           2             7    6     1       0.5374174804E-03       7    6    1         0.3010058500E-01      0.3011202318E-01
                                                   Max.-Head-Change                         Max.-Flux-Residual
  Residual-Control   Outer-Iter.   Inner-Iter.     Column Row Layer    Maximum-Head-Change  Column Row Layer    Maximum-Flux-Residual          L2-NORM 
          0               111           2             7    6     1       0.5374174769E-03       7    6    1         0.3010030404E-01      0.3011181311E-01
          0               112           2             7    6     1       0.5374174725E-03       7    6    1         0.3010002307E-01      0.3011147626E-01
          0               113           2             7    6     1       0.5374174685E-03       7    6    1         0.3009974212E-01      0.3011122075E-01
          0               114           2             7    6     1       0.5374174646E-03       7    6    1         0.3009946118E-01      0.3011094109E-01
          0               115           2             7    6     1       0.5374174608E-03       7    6    1         0.3009918023E-01      0.3011062278E-01
          0               116           2             7    6     1       0.5374174564E-03       7    6    1         0.3009889927E-01      0.3011037961E-01
          0               117           2             7    6     1       0.5374174524E-03       7    6    1         0.3009861835E-01      0.3011002680E-01
          0               118           2             7    6     1       0.5374174484E-03       7    6    1         0.3009833743E-01      0.3010983340E-01
          0               119           2             7    6     1       0.5374174448E-03       7    6    1         0.3009805651E-01      0.3010949645E-01
          0               120           2             7    6     1       0.5374174404E-03       7    6    1         0.3009777558E-01      0.3010924059E-01
                                                   Max.-Head-Change                         Max.-Flux-Residual
  Residual-Control   Outer-Iter.   Inner-Iter.     Column Row Layer    Maximum-Head-Change  Column Row Layer    Maximum-Flux-Residual          L2-NORM 
          0               121           2             7    6     1       0.5374174367E-03       7    6    1         0.3009749468E-01      0.3010896451E-01
          0               122           2             7    6     1       0.5374174326E-03       7    6    1         0.3009721376E-01      0.3010867994E-01
          0               123           2             7    6     1       0.5374174283E-03       7    6    1         0.3009693285E-01      0.3010838842E-01
          0               124           2             7    6     1       0.5374174243E-03       7    6    1         0.3009665196E-01      0.3010808734E-01
          0               125           2             7    6     1       0.5374174206E-03       7    6    1         0.3009637107E-01      0.3010783395E-01
          0               126           2             7    6     1       0.5374003899E-03       7    6    1         0.3009513651E-01      0.3010658958E-01
          0               127           2             7    6     1       0.5374186275E-03       7    6    1         0.3009587748E-01      0.3010732734E-01
          0               128           2             7    6     1       0.5374173212E-03       7    6    1         0.3009552353E-01      0.3010697938E-01
          0               129           2             7    6     1       0.5374174106E-03       7    6    1         0.3009524788E-01      0.3010669634E-01
          0               130           2             7    6     1       0.5374174000E-03       7    6    1         0.3009496665E-01      0.3010641158E-01
                                                   Max.-Head-Change                         Max.-Flux-Residual
  Residual-Control   Outer-Iter.   Inner-Iter.     Column Row Layer    Maximum-Head-Change  Column Row Layer    Maximum-Flux-Residual          L2-NORM 
          0               131           2             7    6     1       0.5374173962E-03       7    6    1         0.3009468581E-01      0.3010615493E-01
          0               132           2             7    6     1       0.5374173921E-03       7    6    1         0.3009440496E-01      0.3010587282E-01
          0               133           2             7    6     1       0.5374173886E-03       7    6    1         0.3009412413E-01      0.3010555312E-01
          0               134           2             7    6     1       0.5374173841E-03       7    6    1         0.3009384326E-01      0.3010531514E-01
          0               135           2             7    6     1       0.5374173807E-03       7    6    1         0.3009356244E-01      0.3010500587E-01
          0               136           2             7    6     1       0.5374173761E-03       7    6    1         0.3009328159E-01      0.3010472901E-01
          0               137           2             7    6     1       0.5374173723E-03       7    6    1         0.3009300077E-01      0.3010442501E-01
          0               138           2             7    6     1       0.5374173686E-03       7    6    1         0.3009271995E-01      0.3010417894E-01
          0               139           2             7    6     1       0.5374173641E-03       7    6    1         0.3009243911E-01      0.3010389024E-01
          0               140           2             7    6     1       0.5374173602E-03       7    6    1         0.3009215830E-01      0.3010362051E-01
                                                   Max.-Head-Change                         Max.-Flux-Residual
  Residual-Control   Outer-Iter.   Inner-Iter.     Column Row Layer    Maximum-Head-Change  Column Row Layer    Maximum-Flux-Residual          L2-NORM 
          0               141           2             7    6     1       0.5374173563E-03       7    6    1         0.3009187750E-01      0.3010328912E-01
          0               142           2             7    6     1       0.5374173522E-03       7    6    1         0.3009159669E-01      0.3010304453E-01
          0               143           2             7    6     1       0.5374173479E-03       7    6    1         0.3009131589E-01      0.3010276478E-01
          0               144           2             7    6     1       0.5374173443E-03       7    6    1         0.3009103512E-01      0.3010249133E-01
          0               145           2             7    6     1       0.5374173403E-03       7    6    1         0.3009075433E-01      0.3010216357E-01
          0               146           2             7    6     1       0.5374173364E-03       7    6    1         0.3009047354E-01      0.3010191051E-01
          0               147           2             7    6     1       0.5374173320E-03       7    6    1         0.3009019275E-01      0.3010164038E-01
          0               148           2             7    6     1       0.5374173283E-03       7    6    1         0.3008991199E-01      0.3010137565E-01
          0               149           2             7    6     1       0.5374173242E-03       7    6    1         0.3008963122E-01      0.3010103973E-01
          0               150           2             7    6     1       0.5374173205E-03       7    6    1         0.3008935046E-01      0.3010080662E-01
                                                   Max.-Head-Change                         Max.-Flux-Residual
  Residual-Control   Outer-Iter.   Inner-Iter.     Column Row Layer    Maximum-Head-Change  Column Row Layer    Maximum-Flux-Residual          L2-NORM 
          0               151           2             7    6     1       0.5374173157E-03       7    6    1         0.3008906968E-01      0.3010050147E-01
          0               152           2             7    6     1       0.5374173122E-03       7    6    1         0.3008878895E-01      0.3010022695E-01
          0               153           2             7    6     1       0.5374173080E-03       7    6    1         0.3008850820E-01      0.3009994221E-01
          0               154           2             7    6     1       0.5374173042E-03       7    6    1         0.3008822747E-01      0.3009966142E-01
          0               155           2             7    6     1       0.5374172999E-03       7    6    1         0.3008794673E-01      0.3009938529E-01
          0               156           2             7    6     1       0.5374172961E-03       7    6    1         0.3008766601E-01      0.3009908986E-01
          0               157           2             7    6     1       0.5374172920E-03       7    6    1         0.3008738528E-01      0.3009881036E-01
          0               158           2             7    6     1       0.5374172883E-03       7    6    1         0.3008710457E-01      0.3009855714E-01
          0               159           2             7    6     1       0.5374172839E-03       7    6    1         0.3008682383E-01      0.3009824991E-01
          0               160           2             7    6     1       0.5374172802E-03       7    6    1         0.3008654313E-01      0.3009796980E-01
                                                   Max.-Head-Change                         Max.-Flux-Residual
  Residual-Control   Outer-Iter.   Inner-Iter.     Column Row Layer    Maximum-Head-Change  Column Row Layer    Maximum-Flux-Residual          L2-NORM 
          0               161           2             7    6     1       0.5374172756E-03       7    6    1         0.3008626241E-01      0.3009768611E-01
          0               162           2             7    6     1       0.5374172724E-03       7    6    1         0.3008598174E-01      0.3009742570E-01
          0               163           2             7    6     1       0.5374172676E-03       7    6    1         0.3008570102E-01      0.3009713008E-01
          0               164           2             7    6     1       0.5374172642E-03       7    6    1         0.3008542036E-01      0.3009680896E-01
          0               165           2             7    6     1       0.5374172600E-03       7    6    1         0.3008513966E-01      0.3009658016E-01
          0               166           2             7    6     1       0.5374172559E-03       7    6    1         0.3008485898E-01      0.3009629171E-01
          0               167           2             7    6     1       0.5374172524E-03       7    6    1         0.3008457832E-01      0.3009601823E-01
          0               168           2             7    6     1       0.5374172474E-03       7    6    1         0.3008429762E-01      0.3009570831E-01
          0               169           2             7    6     1       0.5374172441E-03       7    6    1         0.3008401699E-01      0.3009546044E-01
          0               170           2             7    6     1       0.5374172398E-03       7    6    1         0.3008373632E-01      0.3009513663E-01
                                                   Max.-Head-Change                         Max.-Flux-Residual
  Residual-Control   Outer-Iter.   Inner-Iter.     Column Row Layer    Maximum-Head-Change  Column Row Layer    Maximum-Flux-Residual          L2-NORM 
          0               171           2             7    6     1       0.5374172362E-03       7    6    1         0.3008345568E-01      0.3009487457E-01
          0               172           2             7    6     1       0.5374172316E-03       7    6    1         0.3008317502E-01      0.3009460721E-01
          0               173           2             7    6     1       0.5374172277E-03       7    6    1         0.3008289440E-01      0.3009431264E-01
          0               174           2             7    6     1       0.5374172242E-03       7    6    1         0.3008261377E-01      0.3009402461E-01
          0               175           2             7    6     1       0.5374172198E-03       7    6    1         0.3008233312E-01      0.3009376556E-01
          0               176           2             7    6     1       0.5374172157E-03       7    6    1         0.3008205250E-01      0.3009348058E-01
          0               177           2             7    6     1       0.5374172120E-03       7    6    1         0.3008177188E-01      0.3009318251E-01
          0               178           2             7    6     1       0.5374172078E-03       7    6    1         0.3008149126E-01      0.3009291402E-01
          0               179           2             7    6     1       0.5374172036E-03       7    6    1         0.3008121065E-01      0.3009263528E-01
          0               180           2             7    6     1       0.5374172002E-03       7    6    1         0.3008093006E-01      0.3009233070E-01
                                                   Max.-Head-Change                         Max.-Flux-Residual
  Residual-Control   Outer-Iter.   Inner-Iter.     Column Row Layer    Maximum-Head-Change  Column Row Layer    Maximum-Flux-Residual          L2-NORM 
          0               181           2             7    6     1       0.5374171956E-03       7    6    1         0.3008064944E-01      0.3009206658E-01
          0               182           2             7    6     1       0.5374171914E-03       7    6    1         0.3008036885E-01      0.3009179911E-01
          0               183           2             7    6     1       0.5374171880E-03       7    6    1         0.3008008829E-01      0.3009148964E-01
          0               184           2             7    6     1       0.5374171837E-03       7    6    1         0.3007980769E-01      0.3009122409E-01
          0               185           2             7    6     1       0.5374171797E-03       7    6    1         0.3007952711E-01      0.3009092378E-01
          0               186           2             7    6     1       0.5374171760E-03       7    6    1         0.3007924654E-01      0.3009067872E-01
          0               187           2             7    6     1       0.5374171712E-03       7    6    1         0.3007896595E-01      0.3009037937E-01
          0               188           2             7    6     1       0.5374171679E-03       7    6    1         0.3007868542E-01      0.3009009957E-01
          0               189           2             7    6     1       0.5374171638E-03       7    6    1         0.3007840485E-01      0.3008983105E-01
          0               190           2             7    6     1       0.5374171597E-03       7    6    1         0.3007812430E-01      0.3008953456E-01
                                                   Max.-Head-Change                         Max.-Flux-Residual
  Residual-Control   Outer-Iter.   Inner-Iter.     Column Row Layer    Maximum-Head-Change  Column Row Layer    Maximum-Flux-Residual          L2-NORM 
          0               191           2             7    6     1       0.5374171555E-03       7    6    1         0.3007784375E-01      0.3008925417E-01
          0               192           2             7    6     1       0.5374171520E-03       7    6    1         0.3007756322E-01      0.3008897391E-01
          0               193           2             7    6     1       0.5374171472E-03       7    6    1         0.3007728266E-01      0.3008867554E-01
          0               194           2             7    6     1       0.5374171439E-03       7    6    1         0.3007700215E-01      0.3008843612E-01
          0               195           2             7    6     1       0.5374171395E-03       7    6    1         0.3007672161E-01      0.3008811196E-01
          0               196           2             7    6     1       0.5374171357E-03       7    6    1         0.3007644109E-01      0.3008783804E-01
          0               197           2             7    6     1       0.5374171317E-03       7    6    1         0.3007616057E-01      0.3008757123E-01
          0               198           2             7    6     1       0.5374171274E-03       7    6    1         0.3007588006E-01      0.3008728380E-01
          0               199           2             7    6     1       0.5374171234E-03       7    6    1         0.3007559956E-01      0.3008701032E-01
          0               200           2             7    6     1       0.5374171197E-03       7    6    1         0.3007531907E-01      0.3008669968E-01

    ------------------------------------------------
       NWT REQUIRED          200 OUTER ITERATIONS 
       AND A TOTAL OF        400 INNER ITERATIONS.
    ------------------------------------------------

 NO OUTPUT CONTROL FOR STRESS PERIOD   18   TIME STEP   30



 STREAM LISTING     PERIOD     18   STEP       30

 LAYER ROW COL. STREAM  RCH.  FLOW INTO     FLOW TO   FLOW OUT OF   OVRLND.     DIRECT     STREAM       STREAM     STREAM     STREAM   STREAMBED  STREAMBED
                SEG.NO.  NO.  STRM. RCH.    AQUIFER    STRM. RCH.    RUNOFF     PRECIP       ET          HEAD       DEPTH      WIDTH   CONDCTNC.   GRADIENT

   1    1    1     1     1    6.1402E+01  3.7685E-09   6.1402E+01  0.000E+00  0.000E+00  0.000E+00  1.09459E+03  1.542E+00  1.844E+01  8.296E-10  1.514E+00
   1    2    2     1     2    6.1402E+01  5.8565E-09   6.1402E+01  0.000E+00  0.000E+00  0.000E+00  1.08960E+03  1.541E+00  1.842E+01  1.290E-09  1.514E+00
   1    3    3     1     3    6.1402E+01  5.0218E-09   6.1402E+01  0.000E+00  0.000E+00  0.000E+00  1.08396E+03  1.542E+00  1.843E+01  1.106E-09  1.514E+00
   1    3    4     1     4    6.1402E+01  4.6460E-09   6.1402E+01  0.000E+00  0.000E+00  0.000E+00  1.07895E+03  1.542E+00  1.843E+01  1.023E-09  1.514E+00
   1    4    5     2     1    5.9402E+01  3.9200E-01   5.9010E+01  0.000E+00  0.000E+00  0.000E+00  1.07396E+03  2.026E+00  1.200E+01  7.800E-02  1.675E+00
   1    5    6     2     2    5.9010E+01  3.0111E-01   5.8709E+01  0.000E+00  0.000E+00  0.000E+00  1.06853E+03  2.019E+00  1.200E+01  6.000E-02  1.673E+00
   1    6    6     2     3    5.8709E+01  3.0074E-01   5.8408E+01  0.000E+00  0.000E+00  0.000E+00  1.06380E+03  2.012E+00  1.200E+01  6.000E-02  1.671E+00
   1    7    6     2     4    5.8408E+01  3.0037E-01   5.8108E+01  0.000E+00  0.000E+00  0.000E+00  1.05908E+03  2.006E+00  1.200E+01  6.000E-02  1.669E+00
   1    8    6     2     5    5.8108E+01  2.9999E-01   5.7808E+01  0.000E+00  0.000E+00  0.000E+00  1.05436E+03  2.000E+00  1.200E+01  6.000E-02  1.667E+00
   1    3    5     3     1    2.0000E+00  2.8252E-01   1.7175E+00  0.000E+00  0.000E+00  0.000E+00  1.07555E+03  1.909E+00  9.636E+00  7.227E-02  1.955E+00
   1    3    6     3     2    1.7175E+00  2.4905E-01   1.4684E+00  0.000E+00  0.000E+00  0.000E+00  1.07264E+03  1.727E+00  8.909E+00  6.682E-02  1.864E+00
   1    3    7     3     3    1.4684E+00  1.9718E-01   1.2712E+00  0.000E+00  0.000E+00  0.000E+00  1.06987E+03  1.555E+00  8.218E+00  5.547E-02  1.777E+00
   1    4    8     3     4    1.2712E+00  2.2567E-01   1.0456E+00  0.000E+00  0.000E+00  0.000E+00  1.06682E+03  1.364E+00  7.455E+00  6.709E-02  1.682E+00
   1    5    8     3     5    1.0456E+00  1.5790E-01   8.8768E-01  0.000E+00  0.000E+00  0.000E+00  1.06362E+03  1.164E+00  6.655E+00  4.991E-02  1.582E+00
   1    6    8     3     6    8.8768E-01  5.5980E-02   8.3170E-01  0.000E+00  0.000E+00  0.000E+00  1.06158E+03  1.036E+00  6.145E+00  1.844E-02  1.518E+00
   1    5   10     4     1    1.0000E+01  9.0919E-02   9.9091E+00  0.000E+00  0.000E+00  0.000E+00  1.07836E+03  6.368E-01  1.000E+01  2.500E-02  1.212E+00
   1    5    9     4     2    9.9091E+00  1.8158E-01   9.7275E+00  0.000E+00  0.000E+00  0.000E+00  1.07154E+03  6.315E-01  1.000E+01  5.000E-02  1.211E+00
   1    6    8     4     3    9.7275E+00  1.2689E-01   9.6006E+00  0.000E+00  0.000E+00  0.000E+00  1.06381E+03  6.256E-01  1.000E+01  3.500E-02  1.209E+00
   1    6    8     5     1    1.0432E+01  2.2686E-09   1.0432E+01  0.000E+00  0.000E+00  0.000E+00  1.05868E+03  6.790E-01  1.542E+01  6.166E-10  1.226E+00
   1    7    7     5     2    1.0432E+01  2.8306E-09   1.0432E+01  0.000E+00  0.000E+00  0.000E+00  1.05418E+03  6.784E-01  1.539E+01  7.695E-10  1.226E+00
   1    8    7     5     3    1.0432E+01  1.9868E-09   1.0432E+01  0.000E+00  0.000E+00  0.000E+00  1.04993E+03  6.794E-01  1.543E+01  5.400E-10  1.226E+00
   1    8    6     5     4    1.0432E+01  1.4217E-09   1.0432E+01  0.000E+00  0.000E+00  0.000E+00  1.04693E+03  6.800E-01  1.545E+01  3.863E-10  1.227E+00
   1    9    6     6     1    6.1790E+01  3.0590E-01   6.1485E+01  0.000E+00  0.000E+00  0.000E+00  1.04483E+03  2.098E+00  1.200E+01  6.000E-02  1.699E+00
   1   10    7     6     2    6.1485E+01  3.0553E-01   6.1179E+01  0.000E+00  0.000E+00  0.000E+00  1.04027E+03  2.092E+00  1.200E+01  6.000E-02  1.697E+00
   1   11    7     6     3    6.1179E+01  3.0515E-01   6.0874E+01  0.000E+00  0.000E+00  0.000E+00  1.03572E+03  2.086E+00  1.200E+01  6.000E-02  1.695E+00
   1   12    7     6     4    6.0874E+01  3.0477E-01   6.0569E+01  0.000E+00  0.000E+00  0.000E+00  1.03117E+03  2.080E+00  1.200E+01  6.000E-02  1.693E+00
   1   13    7     6     5    6.0569E+01  1.2180E-01   6.0447E+01  0.000E+00  0.000E+00  0.000E+00  1.02798E+03  2.075E+00  1.200E+01  2.400E-02  1.692E+00
   1   14    9     7     1    1.5000E+02  2.9539E-08   1.5000E+02  0.000E+00  0.000E+00  0.000E+00  1.03986E+03  2.283E+00  5.528E+01  5.591E-09  1.761E+00
   1   13    8     7     2    1.5000E+02  3.2486E-14   1.5000E+02  0.000E+00  0.000E+00  0.000E+00  1.03478E+03  2.283E+00  5.527E+01  6.150E-15  1.761E+00
   1   13    7     7     3    1.5000E+02  2.9539E-08   1.5000E+02  0.000E+00  0.000E+00  0.000E+00  1.02970E+03  2.283E+00  5.528E+01  5.591E-09  1.761E+00
   1   13    6     8     1    2.1045E+02  2.9175E-12   2.1045E+02  0.000E+00  0.000E+00  0.000E+00  1.02506E+03  3.190E+00  4.625E+01  4.713E-13  2.063E+00
   1   13    5     8     2    2.1045E+02  0.0000E+00   2.1045E+02  0.000E+00  0.000E+00  0.000E+00  1.01882E+03  3.198E+00  4.637E+01  0.000E+00  2.066E+00
   1   13    4     8     3    2.1045E+02  1.9450E-14   2.1045E+02  0.000E+00  0.000E+00  0.000E+00  1.01257E+03  3.193E+00  4.629E+01  4.717E-15  1.374E+00
   1   13    3     8     4    2.1045E+02  2.8900E-06   2.1045E+02  0.000E+00  0.000E+00  0.000E+00  1.00632E+03  3.197E+00  4.636E+01  4.724E-06  2.039E-01
   1   13    2     8     5    2.1045E+02 -1.5528E+00   2.1200E+02  0.000E+00  0.000E+00  0.000E+00  1.00008E+03  3.203E+00  4.644E+01  4.732E+00 -1.094E-01
   1   13    1     8     6    2.1200E+02 -1.7097E+00   2.1371E+02  0.000E+00  0.000E+00  0.000E+00  9.95087E+02  3.212E+00  4.657E+01  2.848E+00 -2.001E-01
   1    6    8     9     1    6.4495E+00  0.0000E+00   6.4495E+00  0.000E+00  0.000E+00  0.000E+00  1.07891E+03  4.142E-01  4.000E+00  0.000E+00  1.138E+00





UNSATURATED ZONE PACKAGE VOLUMETRIC BUDGET FOR  TIME STEP    30 STRESS PERIOD   18
  ------------------------------------------------------------------------------



     CUMULATIVE VOLUMES      L**3       RATES FOR THIS TIME STEP      L**3/T
     ------------------                 ------------------------

           IN:                                      IN:
           ---                                      ---
        INFILTRATION =    76974549.3701          INFILTRATION =          26.3980

          OUT:                                     OUT:
          ----                                     ----
              UZF ET =   571034045.2852                UZF ET =           1.7123
        UZF RECHARGE =  1193680019.2283          UZF RECHARGE =          24.1855

            IN - OUT = -1687739515.1433              IN - OUT =           0.5002

          STORAGE:                                 STORAGE:
          --------                                 --------
      STORAGE CHANGE = -1687731837.6573        STORAGE CHANGE =           0.5002

 PERCENT DISCREPANCY IS DIFFERENCE BETWEEN IN-OUT MINUS CHANGE IN STORAGE
 DIVIDED BY THE AVERAGE OF IN AND OUT TIMES 100

 PERCENT DISCREPANCY =          -0.00     PERCENT DISCREPANCY =           0.00







         ****FAILED TO MEET SOLVER CONVERGENCE CRITERIA IN TIME STEP   30 OF STRESS PERIOD   18****
1
  VOLUMETRIC BUDGET FOR ENTIRE MODEL AT END OF TIME STEP   30, STRESS PERIOD  18
  ------------------------------------------------------------------------------

     CUMULATIVE VOLUMES      L**3       RATES FOR THIS TIME STEP      L**3/T
     ------------------                 ------------------------

           IN:                                      IN:
           ---                                      ---
             STORAGE =    20640042.0000               STORAGE =           8.5120
       CONSTANT HEAD =           0.0000         CONSTANT HEAD =           0.0000
               WELLS =           0.0000                 WELLS =           0.0000
     HEAD DEP BOUNDS =    48849564.0000       HEAD DEP BOUNDS =           0.9915
      STREAM LEAKAGE =   188715616.0000        STREAM LEAKAGE =           4.5051
        UZF RECHARGE =  1193680384.0000          UZF RECHARGE =          24.1855
               GW ET =           0.0000                 GW ET =           0.0000
     SURFACE LEAKAGE =           0.0000       SURFACE LEAKAGE =           0.0000

            TOTAL IN =  1451885568.0000              TOTAL IN =          38.1940

          OUT:                                     OUT:
          ----                                     ----
             STORAGE =  1272364416.0000               STORAGE =          24.3255
       CONSTANT HEAD =           0.0000         CONSTANT HEAD =           0.0000
               WELLS =     3692157.0000                 WELLS =           9.5505
     HEAD DEP BOUNDS =    13504857.0000       HEAD DEP BOUNDS =           0.2921
      STREAM LEAKAGE =   121606024.0000        STREAM LEAKAGE =           3.2625
        UZF RECHARGE =           0.0000          UZF RECHARGE =           0.0000
               GW ET =    40572608.0000                 GW ET =           0.7329
     SURFACE LEAKAGE =           0.0000       SURFACE LEAKAGE =           0.0000

           TOTAL OUT =  1451740160.0000             TOTAL OUT =          38.1635

            IN - OUT =      145408.0000              IN - OUT =       3.0579E-02

 PERCENT DISCREPANCY =           0.01     PERCENT DISCREPANCY =           0.08






         TIME SUMMARY AT END OF TIME STEP   30 IN STRESS PERIOD   18
                    SECONDS     MINUTES      HOURS       DAYS        YEARS
                    -----------------------------------------------------------
   TIME STEP LENGTH  87600.      1460.0      24.333      1.0139     2.77588E-03
 STRESS PERIOD TIME 2.62800E+06  43800.      730.00      30.417     8.32763E-02
         TOTAL TIME 4.73040E+07 7.88400E+05  13140.      547.50      1.4990    
1
1
                            STRESS PERIOD NO.   19, LENGTH =   2628000.    
                            -----------------------------------------------

                              NUMBER OF TIME STEPS =    30

                               MULTIPLIER FOR DELT =     1.000

                            INITIAL TIME STEP SIZE =   87600.00    

 WELL NO.  LAYER   ROW   COL   STRESS RATE         
 --------------------------------------------------
      1      1      6      4       0.000    
      2      1      6      7       0.000    
      3      1      7      4       0.000    
      4      1      7      5       0.000    
      5      1      8      4       0.000    
      6      1      8      5       0.000    
      7      1      9      4       0.000    
      8      1      9      5       0.000    
      9      1     10      4       0.000    
     10      1     10      5       0.000    

     10 WELLS

 REUSING NON-PARAMETER GHB CELLS FROM LAST STRESS PERIOD

      2 GHB CELLS

 REUSING STREAM SEGMENT DATA FROM LAST STRESS PERIOD



            AREAL INFILTRATION RATE
 READING ON UNIT   19 WITH FORMAT: (10F4.0)            

            1           2           3           4           5           6           7           8           9          10
 ........................................................................................................................
   1   1.0000E-10  2.0000E-10   0.000       0.000       0.000       0.000       0.000       0.000       0.000       0.000    
   2   2.0000E-10  1.0000E-10  2.0000E-10   0.000       0.000      8.0000E-10  8.0000E-10  5.0000E-10   0.000       0.000    
   3    0.000      5.0000E-10  1.0000E-10  1.0000E-10  8.0000E-10  8.0000E-10  5.0000E-10  5.0000E-10   0.000       0.000    
   4   8.0000E-10  5.0000E-10  1.0000E-10  1.0000E-10  1.0000E-10  1.0000E-10  1.0000E-10  1.0000E-10  2.0000E-10   0.000    
   5   8.0000E-10  5.0000E-10  1.0000E-10  1.0000E-10  1.0000E-10  1.0000E-10  1.0000E-10  1.0000E-10  1.0000E-10  1.0000E-10
   6   8.0000E-10  5.0000E-10  5.0000E-10  2.0000E-10  2.0000E-10  1.0000E-10  1.0000E-10  1.0000E-10  1.0000E-10  5.0000E-10
   7   8.0000E-10  5.0000E-10  5.0000E-10  2.0000E-10  2.0000E-10  1.0000E-10  1.0000E-10  2.0000E-10  2.0000E-10   0.000    
   8    0.000      5.0000E-10  5.0000E-10  2.0000E-10  2.0000E-10  1.0000E-10  1.0000E-10  2.0000E-10  5.0000E-10   0.000    
   9    0.000      5.0000E-10  5.0000E-10  2.0000E-10  2.0000E-10  1.0000E-10  1.0000E-10  2.0000E-10  5.0000E-10   0.000    
  10    0.000      5.0000E-10  5.0000E-10  2.0000E-10  2.0000E-10  1.0000E-10  1.0000E-10  2.0000E-10  5.0000E-10  8.0000E-10
  11    0.000      1.0000E-10  1.0000E-10  1.0000E-10  1.0000E-10  1.0000E-10  1.0000E-10  2.0000E-10  5.0000E-10   0.000    
  12   1.0000E-10  1.0000E-10  1.0000E-10  1.0000E-10  1.0000E-10  1.0000E-10  1.0000E-10  1.0000E-10  2.0000E-10   0.000    
  13   1.0000E-10  1.0000E-10  2.0000E-10  2.0000E-10  2.0000E-10  2.0000E-10  2.0000E-10  1.0000E-10  1.0000E-10   0.000    
  14    0.000      2.0000E-10  5.0000E-10  5.0000E-10  5.0000E-10  5.0000E-10  5.0000E-10  2.0000E-10  1.0000E-10   0.000    
  15    0.000       0.000      8.0000E-10  8.0000E-10  8.0000E-10  8.0000E-10   0.000       0.000       0.000       0.000    

                  ET RATE =  3.000000E-08

 USING ET EXTINCTION DEPTH FROM PREVIOUS STRESS PERIOD. CURRENT PERIOD IS:      19

 USING EXTINCTION WATER CONTENT FROM PREVIOUS STRESS PERIOD. CURRENT PERIOD IS:      19
 
 SOLVING FOR HEAD 
                                                   Max.-Head-Change                         Max.-Flux-Residual
  Residual-Control   Outer-Iter.   Inner-Iter.     Column Row Layer    Maximum-Head-Change  Column Row Layer    Maximum-Flux-Residual          L2-NORM 
          0                 1           2             7    6     1      -0.1479968267E+00       7    6    1        -0.8072266124E+01      0.8390628924E+01
          0                 2           2             7    6     1      -0.1016698801E+00       7    6    1        -0.5545581142E+01      0.5562516275E+01
          0                 3           2             7    6     1       0.1180823425E-01       7    6    1         0.6512486898E+00      0.6688833781E+00
          0                 4           2             7    6     1       0.6901391262E-03       7    6    1         0.3807552504E-01      0.7312840589E-01
          0                 5           2             7    6     1       0.1693825903E-02       7    6    1         0.9326722561E-01      0.9733434246E-01
          0                 6           2             7    6     1       0.1603959061E-02       7    6    1         0.8829902757E-01      0.8919944885E-01
          0                 7           2             7    6     1       0.1612123584E-02       7    6    1         0.8874538153E-01      0.8895284239E-01
          0                 8           2             7    6     1       0.1611382367E-02       7    6    1         0.8870335508E-01      0.8877232775E-01
          0                 9           2             7    6     1       0.1611467691E-02       7    6    1         0.8870720576E-01      0.8874837100E-01
          0                10           2             7    6     1       0.1611459934E-02       7    6    1         0.8870597194E-01      0.8874156148E-01
                                                   Max.-Head-Change                         Max.-Flux-Residual
  Residual-Control   Outer-Iter.   Inner-Iter.     Column Row Layer    Maximum-Head-Change  Column Row Layer    Maximum-Flux-Residual          L2-NORM 
          0                11           2             7    6     1       0.1611460475E-02       7    6    1         0.8870519601E-01      0.8873964064E-01
          0                12           2             7    6     1       0.1611460317E-02       7    6    1         0.8870437885E-01      0.8873857327E-01
          0                13           2             7    6     1       0.1611460259E-02       7    6    1         0.8870356540E-01      0.8873774403E-01
          0                14           2             7    6     1       0.1611460210E-02       7    6    1         0.8870275165E-01      0.8873688923E-01
          0                15           2             7    6     1       0.1611460168E-02       7    6    1         0.8870193793E-01      0.8873607126E-01
          0                16           2             7    6     1       0.1611460130E-02       7    6    1         0.8870112425E-01      0.8873525882E-01
          0                17           2             7    6     1       0.1611460093E-02       7    6    1         0.8870031055E-01      0.8873444835E-01
          0                18           2             7    6     1       0.1611460057E-02       7    6    1         0.8869949689E-01      0.8873359016E-01
          0                19           2             7    6     1       0.1611460022E-02       7    6    1         0.8869868327E-01      0.8873283522E-01
          0                20           2             7    6     1       0.1611459986E-02       7    6    1         0.8869786962E-01      0.8873192854E-01
                                                   Max.-Head-Change                         Max.-Flux-Residual
  Residual-Control   Outer-Iter.   Inner-Iter.     Column Row Layer    Maximum-Head-Change  Column Row Layer    Maximum-Flux-Residual          L2-NORM 
          0                21           2             7    6     1       0.1611459951E-02       7    6    1         0.8869705600E-01      0.8873113445E-01
          0                22           2             7    6     1       0.1611459915E-02       7    6    1         0.8869624238E-01      0.8873033022E-01
          0                23           2             7    6     1       0.1611459879E-02       7    6    1         0.8869542878E-01      0.8872953497E-01
          0                24           2             7    6     1       0.1611459844E-02       7    6    1         0.8869461523E-01      0.8872866364E-01
          0                25           2             7    6     1       0.1611459808E-02       7    6    1         0.8869380166E-01      0.8872787473E-01
          0                26           2             7    6     1       0.1611459773E-02       7    6    1         0.8869298813E-01      0.8872702235E-01
          0                27           2             7    6     1       0.1611459737E-02       7    6    1         0.8869217455E-01      0.8872622255E-01
          0                28           2             7    6     1       0.1611459702E-02       7    6    1         0.8869136106E-01      0.8872542599E-01
          0                29           2             7    6     1       0.1611459666E-02       7    6    1         0.8869054754E-01      0.8872456317E-01
          0                30           2             7    6     1       0.1611459630E-02       7    6    1         0.8868973407E-01      0.8872376502E-01
                                                   Max.-Head-Change                         Max.-Flux-Residual
  Residual-Control   Outer-Iter.   Inner-Iter.     Column Row Layer    Maximum-Head-Change  Column Row Layer    Maximum-Flux-Residual          L2-NORM 
          0                31           2             7    6     1       0.1611459595E-02       7    6    1         0.8868892060E-01      0.8872294155E-01
          0                32           2             7    6     1       0.1611459559E-02       7    6    1         0.8868810713E-01      0.8872211591E-01
          0                33           2             7    6     1       0.1611459524E-02       7    6    1         0.8868729370E-01      0.8872131298E-01
          0                34           2             7    6     1       0.1611459488E-02       7    6    1         0.8868648028E-01      0.8872045935E-01
          0                35           2             7    6     1       0.1611459453E-02       7    6    1         0.8868566687E-01      0.8871968517E-01
          0                36           2             7    6     1       0.1611459417E-02       7    6    1         0.8868485345E-01      0.8871881548E-01
          0                37           2             7    6     1       0.1611459382E-02       7    6    1         0.8868404006E-01      0.8871801851E-01
          0                38           2             7    6     1       0.1611459346E-02       7    6    1         0.8868322670E-01      0.8871717570E-01
          0                39           2             7    6     1       0.1611459310E-02       7    6    1         0.8868241336E-01      0.8871639120E-01
          0                40           2             7    6     1       0.1611459276E-02       7    6    1         0.8868160003E-01      0.8871554990E-01
                                                   Max.-Head-Change                         Max.-Flux-Residual
  Residual-Control   Outer-Iter.   Inner-Iter.     Column Row Layer    Maximum-Head-Change  Column Row Layer    Maximum-Flux-Residual          L2-NORM 
          0                41           2             7    6     1       0.1611459239E-02       7    6    1         0.8868078669E-01      0.8871471561E-01
          0                42           2             7    6     1       0.1611459205E-02       7    6    1         0.8867997341E-01      0.8871393941E-01
          0                43           2             7    6     1       0.1611459168E-02       7    6    1         0.8867916008E-01      0.8871308203E-01
          0                44           2             7    6     1       0.1611459133E-02       7    6    1         0.8867834682E-01      0.8871228193E-01
          0                45           2             7    6     1       0.1611459098E-02       7    6    1         0.8867753355E-01      0.8871144220E-01
          0                46           2             7    6     1       0.1611459062E-02       7    6    1         0.8867672029E-01      0.8871064583E-01
          0                47           2             7    6     1       0.1611459026E-02       7    6    1         0.8867590707E-01      0.8870980881E-01
          0                48           2             7    6     1       0.1611458991E-02       7    6    1         0.8867509386E-01      0.8870898968E-01
          0                49           2             7    6     1       0.1611458955E-02       7    6    1         0.8867428066E-01      0.8870817039E-01
          0                50           2             7    6     1       0.1611458920E-02       7    6    1         0.8867346746E-01      0.8870733821E-01
                                                   Max.-Head-Change                         Max.-Flux-Residual
  Residual-Control   Outer-Iter.   Inner-Iter.     Column Row Layer    Maximum-Head-Change  Column Row Layer    Maximum-Flux-Residual          L2-NORM 
          0                51           2             7    6     1       0.1611458884E-02       7    6    1         0.8867265429E-01      0.8870654095E-01
          0                52           2             7    6     1       0.1611458849E-02       7    6    1         0.8867184114E-01      0.8870570710E-01
          0                53           2             7    6     1       0.1611458813E-02       7    6    1         0.8867102799E-01      0.8870486562E-01
          0                54           2             7    6     1       0.1611458778E-02       7    6    1         0.8867021486E-01      0.8870407984E-01
          0                55           2             7    6     1       0.1611458743E-02       7    6    1         0.8866940175E-01      0.8870325740E-01
          0                56           2             7    6     1       0.1611458706E-02       7    6    1         0.8866858863E-01      0.8870244232E-01
          0                57           2             7    6     1       0.1611458671E-02       7    6    1         0.8866777556E-01      0.8870158675E-01
          0                58           2             7    6     1       0.1611458636E-02       7    6    1         0.8866696250E-01      0.8870075939E-01
          0                59           2             7    6     1       0.1611458600E-02       7    6    1         0.8866614944E-01      0.8869999756E-01
          0                60           2             7    6     1       0.1611458564E-02       7    6    1         0.8866533641E-01      0.8869914853E-01
                                                   Max.-Head-Change                         Max.-Flux-Residual
  Residual-Control   Outer-Iter.   Inner-Iter.     Column Row Layer    Maximum-Head-Change  Column Row Layer    Maximum-Flux-Residual          L2-NORM 
          0                61           2             7    6     1       0.1611458529E-02       7    6    1         0.8866452337E-01      0.8869833598E-01
          0                62           2             7    6     1       0.1611458493E-02       7    6    1         0.8866371037E-01      0.8869749850E-01
          0                63           2             7    6     1       0.1611458458E-02       7    6    1         0.8866289737E-01      0.8869668670E-01
          0                64           2             7    6     1       0.1611458422E-02       7    6    1         0.8866208437E-01      0.8869587359E-01
          0                65           2             7    6     1       0.1611458387E-02       7    6    1         0.8866127142E-01      0.8869504778E-01
          0                66           2             7    6     1       0.1611458351E-02       7    6    1         0.8866045847E-01      0.8869421565E-01
          0                67           2             7    6     1       0.1611458315E-02       7    6    1         0.8865964553E-01      0.8869340582E-01
          0                68           2             7    6     1       0.1611458280E-02       7    6    1         0.8865883263E-01      0.8869259627E-01
          0                69           2             7    6     1       0.1611458245E-02       7    6    1         0.8865801973E-01      0.8869175869E-01
          0                70           2             7    6     1       0.1611458209E-02       7    6    1         0.8865720682E-01      0.8869095575E-01
                                                   Max.-Head-Change                         Max.-Flux-Residual
  Residual-Control   Outer-Iter.   Inner-Iter.     Column Row Layer    Maximum-Head-Change  Column Row Layer    Maximum-Flux-Residual          L2-NORM 
          0                71           2             7    6     1       0.1611458174E-02       7    6    1         0.8865639396E-01      0.8869011731E-01
          0                72           2             7    6     1       0.1611458138E-02       7    6    1         0.8865558109E-01      0.8868929951E-01
          0                73           2             7    6     1       0.1611458102E-02       7    6    1         0.8865476823E-01      0.8868848816E-01
          0                74           2             7    6     1       0.1611458067E-02       7    6    1         0.8865395542E-01      0.8868767204E-01
          0                75           2             7    6     1       0.1611458031E-02       7    6    1         0.8865314259E-01      0.8868684717E-01
          0                76           2             7    6     1       0.1611457996E-02       7    6    1         0.8865232979E-01      0.8868603078E-01
          0                77           2             7    6     1       0.1611457960E-02       7    6    1         0.8865151702E-01      0.8868518941E-01
          0                78           2             7    6     1       0.1611457925E-02       7    6    1         0.8865070423E-01      0.8868438659E-01
          0                79           2             7    6     1       0.1611457889E-02       7    6    1         0.8864989148E-01      0.8868357384E-01
          0                80           2             7    6     1       0.1611457854E-02       7    6    1         0.8864907873E-01      0.8868273661E-01
                                                   Max.-Head-Change                         Max.-Flux-Residual
  Residual-Control   Outer-Iter.   Inner-Iter.     Column Row Layer    Maximum-Head-Change  Column Row Layer    Maximum-Flux-Residual          L2-NORM 
          0                81           2             7    6     1       0.1611457818E-02       7    6    1         0.8864826601E-01      0.8868193218E-01
          0                82           2             7    6     1       0.1611457783E-02       7    6    1         0.8864745331E-01      0.8868110519E-01
          0                83           2             7    6     1       0.1611457747E-02       7    6    1         0.8864664061E-01      0.8868028168E-01
          0                84           2             7    6     1       0.1611457711E-02       7    6    1         0.8864582792E-01      0.8867947045E-01
          0                85           2             7    6     1       0.1611457676E-02       7    6    1         0.8864501527E-01      0.8867864382E-01
          0                86           2             7    6     1       0.1611457641E-02       7    6    1         0.8864420261E-01      0.8867782443E-01
          0                87           2             7    6     1       0.1611457605E-02       7    6    1         0.8864338997E-01      0.8867702262E-01
          0                88           2             7    6     1       0.1611457569E-02       7    6    1         0.8864257735E-01      0.8867617538E-01
          0                89           2             7    6     1       0.1611457534E-02       7    6    1         0.8864176476E-01      0.8867528609E-01
          0                90           2             7    6     1       0.1611457499E-02       7    6    1         0.8864095216E-01      0.8867462820E-01
                                                   Max.-Head-Change                         Max.-Flux-Residual
  Residual-Control   Outer-Iter.   Inner-Iter.     Column Row Layer    Maximum-Head-Change  Column Row Layer    Maximum-Flux-Residual          L2-NORM 
          0                91           2             7    6     1       0.1611457463E-02       7    6    1         0.8864013956E-01      0.8867372617E-01
          0                92           2             7    6     1       0.1611457427E-02       7    6    1         0.8863932700E-01      0.8867290994E-01
          0                93           2             7    6     1       0.1611457392E-02       7    6    1         0.8863851446E-01      0.8867208991E-01
          0                94           2             7    6     1       0.1611457356E-02       7    6    1         0.8863770194E-01      0.8867126743E-01
          0                95           2             7    6     1       0.1611457321E-02       7    6    1         0.8863688941E-01      0.8867043423E-01
          0                96           2             7    6     1       0.1611457285E-02       7    6    1         0.8863607691E-01      0.8866964387E-01
          0                97           2             7    6     1       0.1611457249E-02       7    6    1         0.8863526441E-01      0.8866880655E-01
          0                98           2             7    6     1       0.1611457214E-02       7    6    1         0.8863445195E-01      0.8866798586E-01
          0                99           2             7    6     1       0.1611457179E-02       7    6    1         0.8863363951E-01      0.8866716980E-01
          0               100           2             7    6     1       0.1611457143E-02       7    6    1         0.8863282705E-01      0.8866637442E-01
                                                   Max.-Head-Change                         Max.-Flux-Residual
  Residual-Control   Outer-Iter.   Inner-Iter.     Column Row Layer    Maximum-Head-Change  Column Row Layer    Maximum-Flux-Residual          L2-NORM 
          0               101           2             7    6     1       0.1611457108E-02       7    6    1         0.8863201463E-01      0.8866553990E-01
          0               102           2             7    6     1       0.1611457072E-02       7    6    1         0.8863120218E-01      0.8866469509E-01
          0               103           2             7    6     1       0.1611457036E-02       7    6    1         0.8863038981E-01      0.8866391163E-01
          0               104           2             7    6     1       0.1611457001E-02       7    6    1         0.8862957742E-01      0.8866305132E-01
          0               105           2             7    6     1       0.1611456965E-02       7    6    1         0.8862876504E-01      0.8866225806E-01
          0               106           2             7    6     1       0.1611456930E-02       7    6    1         0.8862795271E-01      0.8866144021E-01
          0               107           2             7    6     1       0.1611456894E-02       7    6    1         0.8862714036E-01      0.8866061773E-01
          0               108           2             7    6     1       0.1611456858E-02       7    6    1         0.8862632802E-01      0.8865979177E-01
          0               109           2             7    6     1       0.1611456823E-02       7    6    1         0.8862551573E-01      0.8865898722E-01
          0               110           2             7    6     1       0.1611456788E-02       7    6    1         0.8862470344E-01      0.8865815882E-01
                                                   Max.-Head-Change                         Max.-Flux-Residual
  Residual-Control   Outer-Iter.   Inner-Iter.     Column Row Layer    Maximum-Head-Change  Column Row Layer    Maximum-Flux-Residual          L2-NORM 
          0               111           2             7    6     1       0.1611456752E-02       7    6    1         0.8862389115E-01      0.8865733463E-01
          0               112           2             7    6     1       0.1611456717E-02       7    6    1         0.8862307890E-01      0.8865651872E-01
          0               113           2             7    6     1       0.1611456681E-02       7    6    1         0.8862226664E-01      0.8865569832E-01
          0               114           2             7    6     1       0.1611456646E-02       7    6    1         0.8862145440E-01      0.8865487448E-01
          0               115           2             7    6     1       0.1611456609E-02       7    6    1         0.8862064217E-01      0.8865408715E-01
          0               116           2             7    6     1       0.1611456575E-02       7    6    1         0.8861983000E-01      0.8865323119E-01
          0               117           2             7    6     1       0.1611456539E-02       7    6    1         0.8861901778E-01      0.8865241281E-01
          0               118           2             7    6     1       0.1611456503E-02       7    6    1         0.8861820561E-01      0.8865161260E-01
          0               119           2             7    6     1       0.1611456468E-02       7    6    1         0.8861739347E-01      0.8865079603E-01
          0               120           2             7    6     1       0.1611456432E-02       7    6    1         0.8861658131E-01      0.8864995658E-01
                                                   Max.-Head-Change                         Max.-Flux-Residual
  Residual-Control   Outer-Iter.   Inner-Iter.     Column Row Layer    Maximum-Head-Change  Column Row Layer    Maximum-Flux-Residual          L2-NORM 
          0               121           2             7    6     1       0.1611456397E-02       7    6    1         0.8861576918E-01      0.8864914465E-01
          0               122           2             7    6     1       0.1611456361E-02       7    6    1         0.8861495705E-01      0.8864833545E-01
          0               123           2             7    6     1       0.1611456326E-02       7    6    1         0.8861414497E-01      0.8864750357E-01
          0               124           2             7    6     1       0.1611456290E-02       7    6    1         0.8861333286E-01      0.8864669844E-01
          0               125           2             7    6     1       0.1611456255E-02       7    6    1         0.8861252079E-01      0.8864586815E-01
          0               126           2             7    6     1       0.1611456219E-02       7    6    1         0.8861170874E-01      0.8864505607E-01
          0               127           2             7    6     1       0.1611456183E-02       7    6    1         0.8861089670E-01      0.8864422224E-01
          0               128           2             7    6     1       0.1611456148E-02       7    6    1         0.8861008469E-01      0.8864343564E-01
          0               129           2             7    6     1       0.1611456112E-02       7    6    1         0.8860927265E-01      0.8864260675E-01
          0               130           2             7    6     1       0.1611456077E-02       7    6    1         0.8860846067E-01      0.8864176471E-01
                                                   Max.-Head-Change                         Max.-Flux-Residual
  Residual-Control   Outer-Iter.   Inner-Iter.     Column Row Layer    Maximum-Head-Change  Column Row Layer    Maximum-Flux-Residual          L2-NORM 
          0               131           2             7    6     1       0.1611456042E-02       7    6    1         0.8860764871E-01      0.8864095716E-01
          0               132           2             7    6     1       0.1611456006E-02       7    6    1         0.8860683672E-01      0.8864013469E-01
          0               133           2             7    6     1       0.1611455970E-02       7    6    1         0.8860602478E-01      0.8863933401E-01
          0               134           2             7    6     1       0.1611455935E-02       7    6    1         0.8860521284E-01      0.8863850043E-01
          0               135           2             7    6     1       0.1611455900E-02       7    6    1         0.8860440091E-01      0.8863767982E-01
          0               136           2             7    6     1       0.1611455864E-02       7    6    1         0.8860358899E-01      0.8863685649E-01
          0               137           2             7    6     1       0.1611455828E-02       7    6    1         0.8860277710E-01      0.8863607471E-01
          0               138           2             7    6     1       0.1611455792E-02       7    6    1         0.8860196523E-01      0.8863546145E-01
          0               139           2             7    6     1       0.1611455757E-02       7    6    1         0.8860115338E-01      0.8863443670E-01
          0               140           2             7    6     1       0.1611455722E-02       7    6    1         0.8860034152E-01      0.8863358771E-01
                                                   Max.-Head-Change                         Max.-Flux-Residual
  Residual-Control   Outer-Iter.   Inner-Iter.     Column Row Layer    Maximum-Head-Change  Column Row Layer    Maximum-Flux-Residual          L2-NORM 
          0               141           2             7    6     1       0.1611455686E-02       7    6    1         0.8859952969E-01      0.8863276886E-01
          0               142           2             7    6     1       0.1611455651E-02       7    6    1         0.8859871788E-01      0.8863195890E-01
          0               143           2             7    6     1       0.1611455615E-02       7    6    1         0.8859790607E-01      0.8863112474E-01
          0               144           2             7    6     1       0.1611455579E-02       7    6    1         0.8859709427E-01      0.8863032042E-01
          0               145           2             7    6     1       0.1611455544E-02       7    6    1         0.8859628250E-01      0.8862952027E-01
          0               146           2             7    6     1       0.1611455508E-02       7    6    1         0.8859547074E-01      0.8862892048E-01
          0               147           2             7    6     1       0.1611455473E-02       7    6    1         0.8859465902E-01      0.8862788497E-01
          0               148           2             7    6     1       0.1611455438E-02       7    6    1         0.8859384729E-01      0.8862706571E-01
          0               149           2             7    6     1       0.1611455401E-02       7    6    1         0.8859303555E-01      0.8862621984E-01
          0               150           2             7    6     1       0.1611455366E-02       7    6    1         0.8859222387E-01      0.8862541322E-01
                                                   Max.-Head-Change                         Max.-Flux-Residual
  Residual-Control   Outer-Iter.   Inner-Iter.     Column Row Layer    Maximum-Head-Change  Column Row Layer    Maximum-Flux-Residual          L2-NORM 
          0               151           2             7    6     1       0.1611455331E-02       7    6    1         0.8859141218E-01      0.8862459217E-01
          0               152           2             7    6     1       0.1611455295E-02       7    6    1         0.8859060051E-01      0.8862377649E-01
          0               153           2             7    6     1       0.1611455260E-02       7    6    1         0.8858978888E-01      0.8862294530E-01
          0               154           2             7    6     1       0.1611455224E-02       7    6    1         0.8858897721E-01      0.8862216187E-01
          0               155           2             7    6     1       0.1611455189E-02       7    6    1         0.8858816560E-01      0.8862141208E-01
          0               156           2             7    6     1       0.1611455153E-02       7    6    1         0.8858735397E-01      0.8862039729E-01
          0               157           2             7    6     1       0.1611455118E-02       7    6    1         0.8858654240E-01      0.8861968512E-01
          0               158           2             7    6     1       0.1611455082E-02       7    6    1         0.8858573080E-01      0.8861886202E-01
          0               159           2             7    6     1       0.1611455047E-02       7    6    1         0.8858491925E-01      0.8861804213E-01
          0               160           2             7    6     1       0.1611455011E-02       7    6    1         0.8858410768E-01      0.8861723327E-01
                                                   Max.-Head-Change                         Max.-Flux-Residual
  Residual-Control   Outer-Iter.   Inner-Iter.     Column Row Layer    Maximum-Head-Change  Column Row Layer    Maximum-Flux-Residual          L2-NORM 
          0               161           2             7    6     1       0.1611454975E-02       7    6    1         0.8858329615E-01      0.8861641247E-01
          0               162           2             7    6     1       0.1611454940E-02       7    6    1         0.8858248463E-01      0.8861559112E-01
          0               163           2             7    6     1       0.1611454904E-02       7    6    1         0.8858167312E-01      0.8861478288E-01
          0               164           2             7    6     1       0.1611454869E-02       7    6    1         0.8858086164E-01      0.8861395095E-01
          0               165           2             7    6     1       0.1611454833E-02       7    6    1         0.8858005015E-01      0.8861315916E-01
          0               166           2             7    6     1       0.1611454798E-02       7    6    1         0.8857923870E-01      0.8861230117E-01
          0               167           2             7    6     1       0.6772611616E-03       7    6    1         0.3721829694E-01      0.3729700225E-01
          0               168           1             7    6     1      -0.6132240310E-04       7    6    1        -0.3410686091E-02      0.4143045493E-02
          0               169           1             2   13     1      -0.3507229198E-04       2   13    1        -0.2020809548E-02      0.2343812800E-02
          0               170           1             2   13     1      -0.3505461394E-04       2   13    1        -0.2019508925E-02      0.2325614632E-02
                                                   Max.-Head-Change                         Max.-Flux-Residual
  Residual-Control   Outer-Iter.   Inner-Iter.     Column Row Layer    Maximum-Head-Change  Column Row Layer    Maximum-Flux-Residual          L2-NORM 
          0               171           1             2   13     1      -0.3505104529E-04       2   13    1        -0.2019486258E-02      0.2325936404E-02
          0               172           1             2   13     1      -0.3505830297E-04       2   13    1        -0.2019628410E-02      0.2325819999E-02
          0               173           1             2   13     1      -0.3503628201E-04       2   13    1        -0.2018539714E-02      0.2325213643E-02
          0               174           1             2   13     1      -0.3503958095E-04       2   13    1        -0.2018574715E-02      0.2325084288E-02
          0               175           1             2   13     1      -0.3510380277E-04       2   13    1        -0.2023445593E-02      0.2334182952E-02
          0               176           1             2   13     1      -0.3495001202E-04       2   13    1        -0.2012150480E-02      0.2322924228E-02
          0               177           1             2   13     1      -0.3502822292E-04       2   13    1        -0.2017572785E-02      0.2324674278E-02
          0               178           1             2   13     1      -0.3501641341E-04       2   13    1        -0.2017148149E-02      0.2324294985E-02
          0               179           1             2   13     1      -0.3501138503E-04       2   13    1        -0.2016706566E-02      0.2324125039E-02
          0               180           1             2   13     1      -0.3500009540E-04       2   13    1        -0.2015883378E-02      0.2323298966E-02
                                                   Max.-Head-Change                         Max.-Flux-Residual
  Residual-Control   Outer-Iter.   Inner-Iter.     Column Row Layer    Maximum-Head-Change  Column Row Layer    Maximum-Flux-Residual          L2-NORM 
          0               181           1             2   13     1      -0.3499763344E-04       2   13    1        -0.2015924114E-02      0.2323695052E-02
          0               182           1             2   13     1      -0.3499620693E-04       2   13    1        -0.2015690661E-02      0.2323437925E-02
          0               183           1             2   13     1      -0.3490653292E-04       2   13    1        -0.2010453468E-02      0.2319118760E-02
          0               184           1             2   13     1      -0.3509066615E-04       2   13    1        -0.2022239709E-02      0.2333781747E-02
          0               185           1             2   13     1      -0.3495227089E-04       2   13    1        -0.2011898466E-02      0.2323330842E-02
          0               186           1             2   13     1      -0.3496125126E-04       2   13    1        -0.2013264584E-02      0.2321866880E-02
          0               187           1             2   13     1      -0.3497267229E-04       2   13    1        -0.2014186854E-02      0.2322843407E-02
          0               188           1             2   13     1      -0.3498570757E-04       2   13    1        -0.2014801783E-02      0.2323257656E-02
          0               189           1             2   13     1      -0.3492870364E-04       2   13    1        -0.2011452279E-02      0.2320574598E-02
          0               190           1             2   13     1      -0.3493763552E-04       2   13    1        -0.2011920816E-02      0.2321113816E-02
                                                   Max.-Head-Change                         Max.-Flux-Residual
  Residual-Control   Outer-Iter.   Inner-Iter.     Column Row Layer    Maximum-Head-Change  Column Row Layer    Maximum-Flux-Residual          L2-NORM 
          0               191           1             2   13     1      -0.3494636226E-04       2   13    1        -0.2012378562E-02      0.2321604185E-02
          0               192           1             2   13     1      -0.3494071886E-04       2   13    1        -0.2012004364E-02      0.2321497312E-02
          0               193           1             2   13     1      -0.3492681221E-04       2   13    1        -0.2011029042E-02      0.2321349672E-02
          0               194           1             2   13     1      -0.3492885150E-04       2   13    1        -0.2011344777E-02      0.2320397915E-02
          0               195           1             2   13     1      -0.3490818426E-04       2   13    1        -0.2009994108E-02      0.2320071615E-02
          0               196           1             2   13     1      -0.3491715712E-04       2   13    1        -0.2010457376E-02      0.2320629874E-02
          0               197           1             2   13     1      -0.3491903718E-04       2   13    1        -0.2010517680E-02      0.2320878921E-02
          0               198           1             2   13     1      -0.3489250021E-04       2   13    1        -0.2008939811E-02      0.2319515114E-02
          0               199           1             2   13     1      -0.3524185629E-04       2   13    1        -0.2041767848E-02      0.2763204800E-02
          0               200           1             2   13     1      -0.3451725281E-04       2   13    1        -0.1975618002E-02      0.2637452961E-02

    ------------------------------------------------
       NWT REQUIRED          200 OUTER ITERATIONS 
       AND A TOTAL OF        367 INNER ITERATIONS.
    ------------------------------------------------

 NO OUTPUT CONTROL FOR STRESS PERIOD   19   TIME STEP    1



 STREAM LISTING     PERIOD     19   STEP        1

 LAYER ROW COL. STREAM  RCH.  FLOW INTO     FLOW TO   FLOW OUT OF   OVRLND.     DIRECT     STREAM       STREAM     STREAM     STREAM   STREAMBED  STREAMBED
                SEG.NO.  NO.  STRM. RCH.    AQUIFER    STRM. RCH.    RUNOFF     PRECIP       ET          HEAD       DEPTH      WIDTH   CONDCTNC.   GRADIENT

   1    1    1     1     1    2.8000E+01  2.5860E-10   2.8000E+01  0.000E+00  0.000E+00  0.000E+00  1.09427E+03  1.221E+00  1.361E+01  6.126E-11  1.407E+00
   1    2    2     1     2    2.8000E+01  4.0178E-10   2.8000E+01  0.000E+00  0.000E+00  0.000E+00  1.08928E+03  1.220E+00  1.360E+01  9.520E-11  1.407E+00
   1    3    3     1     3    2.8000E+01  3.4455E-10   2.8000E+01  0.000E+00  0.000E+00  0.000E+00  1.08364E+03  1.221E+00  1.361E+01  8.163E-11  1.407E+00
   1    3    4     1     4    2.8000E+01  3.1878E-10   2.8000E+01  0.000E+00  0.000E+00  0.000E+00  1.07863E+03  1.221E+00  1.361E+01  7.552E-11  1.407E+00
   1    4    5     2     1    2.6000E+01  3.3006E-01   2.5670E+01  0.000E+00  0.000E+00  0.000E+00  1.07317E+03  1.232E+00  1.200E+01  7.800E-02  1.411E+00
   1    5    6     2     2    2.5670E+01  2.5339E-01   2.5417E+01  0.000E+00  0.000E+00  0.000E+00  1.06773E+03  1.223E+00  1.200E+01  6.000E-02  1.408E+00
   1    6    6     2     3    2.5417E+01  2.5296E-01   2.5164E+01  0.000E+00  0.000E+00  0.000E+00  1.06301E+03  1.216E+00  1.200E+01  6.000E-02  1.405E+00
   1    7    6     2     4    2.5164E+01  2.5252E-01   2.4911E+01  0.000E+00  0.000E+00  0.000E+00  1.05828E+03  1.209E+00  1.200E+01  6.000E-02  1.403E+00
   1    8    6     2     5    2.4911E+01  2.5208E-01   2.4659E+01  0.000E+00  0.000E+00  0.000E+00  1.05356E+03  1.201E+00  1.200E+01  6.000E-02  1.400E+00
   1    3    5     3     1    2.0000E+00  2.8252E-01   1.7175E+00  0.000E+00  0.000E+00  0.000E+00  1.07555E+03  1.909E+00  9.636E+00  7.227E-02  1.955E+00
   1    3    6     3     2    1.7175E+00  2.4905E-01   1.4684E+00  0.000E+00  0.000E+00  0.000E+00  1.07264E+03  1.727E+00  8.909E+00  6.682E-02  1.864E+00
   1    3    7     3     3    1.4684E+00  1.9718E-01   1.2712E+00  0.000E+00  0.000E+00  0.000E+00  1.06987E+03  1.555E+00  8.218E+00  5.547E-02  1.777E+00
   1    4    8     3     4    1.2712E+00  2.2567E-01   1.0456E+00  0.000E+00  0.000E+00  0.000E+00  1.06682E+03  1.364E+00  7.455E+00  6.709E-02  1.682E+00
   1    5    8     3     5    1.0456E+00  1.5790E-01   8.8768E-01  0.000E+00  0.000E+00  0.000E+00  1.06362E+03  1.164E+00  6.655E+00  4.991E-02  1.582E+00
   1    6    8     3     6    8.8768E-01  5.5980E-02   8.3170E-01  0.000E+00  0.000E+00  0.000E+00  1.06158E+03  1.036E+00  6.145E+00  1.844E-02  1.518E+00
   1    5   10     4     1    1.0000E+01  9.0919E-02   9.9091E+00  0.000E+00  0.000E+00  0.000E+00  1.07836E+03  6.368E-01  1.000E+01  2.500E-02  1.212E+00
   1    5    9     4     2    9.9091E+00  1.8158E-01   9.7275E+00  0.000E+00  0.000E+00  0.000E+00  1.07154E+03  6.315E-01  1.000E+01  5.000E-02  1.211E+00
   1    6    8     4     3    9.7275E+00  1.2689E-01   9.6006E+00  0.000E+00  0.000E+00  0.000E+00  1.06381E+03  6.256E-01  1.000E+01  3.500E-02  1.209E+00
   1    6    8     5     1    1.0432E+01  2.2686E-09   1.0432E+01  0.000E+00  0.000E+00  0.000E+00  1.05868E+03  6.790E-01  1.542E+01  6.166E-10  1.226E+00
   1    7    7     5     2    1.0432E+01  2.8306E-09   1.0432E+01  0.000E+00  0.000E+00  0.000E+00  1.05418E+03  6.784E-01  1.539E+01  7.695E-10  1.226E+00
   1    8    7     5     3    1.0432E+01  1.9868E-09   1.0432E+01  0.000E+00  0.000E+00  0.000E+00  1.04993E+03  6.794E-01  1.543E+01  5.400E-10  1.226E+00
   1    8    6     5     4    1.0432E+01  1.4217E-09   1.0432E+01  0.000E+00  0.000E+00  0.000E+00  1.04693E+03  6.800E-01  1.545E+01  3.863E-10  1.227E+00
   1    9    6     6     1    1.5752E+01  2.3528E-01   1.5517E+01  0.000E+00  0.000E+00  0.000E+00  1.04365E+03  9.213E-01  1.200E+01  6.000E-02  1.307E+00
   1   10    7     6     2    1.5517E+01  2.3478E-01   1.5282E+01  0.000E+00  0.000E+00  0.000E+00  1.03909E+03  9.130E-01  1.200E+01  6.000E-02  1.304E+00
   1   11    7     6     3    1.5282E+01  2.3428E-01   1.5048E+01  0.000E+00  0.000E+00  0.000E+00  1.03454E+03  9.046E-01  1.200E+01  6.000E-02  1.302E+00
   1   12    7     6     4    1.5048E+01  2.3377E-01   1.4814E+01  0.000E+00  0.000E+00  0.000E+00  1.02999E+03  8.962E-01  1.200E+01  6.000E-02  1.299E+00
   1   13    7     6     5    1.4814E+01  9.3368E-02   1.4721E+01  0.000E+00  0.000E+00  0.000E+00  1.02680E+03  8.903E-01  1.200E+01  2.400E-02  1.297E+00
   1   14    9     7     1    1.5000E+02  2.9539E-08   1.5000E+02  0.000E+00  0.000E+00  0.000E+00  1.03986E+03  2.283E+00  5.528E+01  5.591E-09  1.761E+00
   1   13    8     7     2    1.5000E+02  3.2486E-14   1.5000E+02  0.000E+00  0.000E+00  0.000E+00  1.03478E+03  2.283E+00  5.527E+01  6.150E-15  1.761E+00
   1   13    7     7     3    1.5000E+02  2.9539E-08   1.5000E+02  0.000E+00  0.000E+00  0.000E+00  1.02970E+03  2.283E+00  5.528E+01  5.591E-09  1.761E+00
   1   13    6     8     1    1.6472E+02  2.5399E-18   1.6472E+02  0.000E+00  0.000E+00  0.000E+00  1.02478E+03  2.909E+00  4.218E+01  4.298E-19  1.970E+00
   1   13    5     8     2    1.6472E+02  2.5399E-19   1.6472E+02  0.000E+00  0.000E+00  0.000E+00  1.01853E+03  2.909E+00  4.218E+01  4.298E-20  1.970E+00
   1   13    4     8     3    1.6472E+02  1.6575E-31   1.6472E+02  0.000E+00  0.000E+00  0.000E+00  1.01229E+03  2.917E+00  4.230E+01  4.311E-32  1.282E+00
   1   13    3     8     4    1.6472E+02  1.4583E-05   1.6472E+02  0.000E+00  0.000E+00  0.000E+00  1.00604E+03  2.917E+00  4.230E+01  4.310E-05  1.128E-01
   1   13    2     8     5    1.6472E+02 -2.4992E+00   1.6722E+02  0.000E+00  0.000E+00  0.000E+00  9.99801E+02  2.926E+00  4.242E+01  4.323E+00 -1.927E-01
   1   13    1     8     6    1.6722E+02 -2.2224E+00   1.6944E+02  0.000E+00  0.000E+00  0.000E+00  9.94816E+02  2.941E+00  4.265E+01  2.608E+00 -2.841E-01
   1    6    8     9     1    1.9339E+01  0.0000E+00   1.9339E+01  0.000E+00  0.000E+00  0.000E+00  1.07930E+03  8.005E-01  4.000E+00  0.000E+00  1.267E+00





UNSATURATED ZONE PACKAGE VOLUMETRIC BUDGET FOR  TIME STEP     1 STRESS PERIOD   19
  ------------------------------------------------------------------------------



     CUMULATIVE VOLUMES      L**3       RATES FOR THIS TIME STEP      L**3/T
     ------------------                 ------------------------

           IN:                                      IN:
           ---                                      ---
        INFILTRATION =    78742885.6201          INFILTRATION =          20.1865

          OUT:                                     OUT:
          ----                                     ----
              UZF ET =   571484361.2062                UZF ET =           5.1406
        UZF RECHARGE =  1195783494.6992          UZF RECHARGE =          24.0123

            IN - OUT = -1688524970.2853              IN - OUT =          -8.9664

          STORAGE:                                 STORAGE:
          --------                                 --------
      STORAGE CHANGE = -1688517416.4683        STORAGE CHANGE =          -8.9678

 PERCENT DISCREPANCY IS DIFFERENCE BETWEEN IN-OUT MINUS CHANGE IN STORAGE
 DIVIDED BY THE AVERAGE OF IN AND OUT TIMES 100

 PERCENT DISCREPANCY =          -0.00     PERCENT DISCREPANCY =           0.00







         ****FAILED TO MEET SOLVER CONVERGENCE CRITERIA IN TIME STEP    1 OF STRESS PERIOD   19****
1
  VOLUMETRIC BUDGET FOR ENTIRE MODEL AT END OF TIME STEP    1, STRESS PERIOD  19
  ------------------------------------------------------------------------------

     CUMULATIVE VOLUMES      L**3       RATES FOR THIS TIME STEP      L**3/T
     ------------------                 ------------------------

           IN:                                      IN:
           ---                                      ---
             STORAGE =    20917856.0000               STORAGE =           3.1714
       CONSTANT HEAD =           0.0000         CONSTANT HEAD =           0.0000
               WELLS =           0.0000                 WELLS =           0.0000
     HEAD DEP BOUNDS =    48936404.0000       HEAD DEP BOUNDS =           0.9913
      STREAM LEAKAGE =   189060784.0000        STREAM LEAKAGE =           3.9402
        UZF RECHARGE =  1195783808.0000          UZF RECHARGE =          24.0123
               GW ET =           0.0000                 GW ET =           0.0000
     SURFACE LEAKAGE =           0.0000       SURFACE LEAKAGE =           0.0000

            TOTAL IN =  1454698880.0000              TOTAL IN =          32.1152

          OUT:                                     OUT:
          ----                                     ----
             STORAGE =  1274545920.0000               STORAGE =          24.9037
       CONSTANT HEAD =           0.0000         CONSTANT HEAD =           0.0000
               WELLS =     3692157.0000                 WELLS =           0.0000
     HEAD DEP BOUNDS =    13530384.0000       HEAD DEP BOUNDS =           0.2914
      STREAM LEAKAGE =   122019640.0000        STREAM LEAKAGE =           4.7216
        UZF RECHARGE =           0.0000          UZF RECHARGE =           0.0000
               GW ET =    40765200.0000                 GW ET =           2.1985
     SURFACE LEAKAGE =           0.0000       SURFACE LEAKAGE =           0.0000

           TOTAL OUT =  1454553216.0000             TOTAL OUT =          32.1153

            IN - OUT =      145664.0000              IN - OUT =      -6.8665E-05

 PERCENT DISCREPANCY =           0.01     PERCENT DISCREPANCY =          -0.00






         TIME SUMMARY AT END OF TIME STEP    1 IN STRESS PERIOD   19
                    SECONDS     MINUTES      HOURS       DAYS        YEARS
                    -----------------------------------------------------------
   TIME STEP LENGTH  87600.      1460.0      24.333      1.0139     2.77588E-03
 STRESS PERIOD TIME  87600.      1460.0      24.333      1.0139     2.77588E-03
         TOTAL TIME 4.73916E+07 7.89860E+05  13164.      548.51      1.5017    
1
 
 SOLVING FOR HEAD 
                                                   Max.-Head-Change                         Max.-Flux-Residual
  Residual-Control   Outer-Iter.   Inner-Iter.     Column Row Layer    Maximum-Head-Change  Column Row Layer    Maximum-Flux-Residual          L2-NORM 
          0                 1           2             7    6     1       0.2574599860E-01       7    6    1         0.1405752182E+01      0.2602373077E+01
          0                 2           2             7    6     1      -0.2924870784E+00       7    6    1        -0.1610470580E+02      0.1611028664E+02
          0                 3           2             7    6     1       0.2668671242E-01       7    6    1         0.1485229930E+01      0.1495563125E+01
          0                 4           2             7    6     1      -0.1485508336E-02       7    6    1        -0.8311724289E-01      0.1041159430E+00
          0                 5           2             7    6     1       0.7363038001E-03       7    6    1         0.4170647656E-01      0.5010486049E-01
          0                 6           2             7    6     1       0.5891984965E-03       7    6    1         0.3334180992E-01      0.3557982914E-01
          0                 7           2             7    6     1       0.5982715896E-03       7    6    1         0.3384930088E-01      0.3431258922E-01
          0                 8           2             7    6     1       0.5977475842E-03       7    6    1         0.3381833736E-01      0.3392177998E-01
          0                 9           2             7    6     1       0.5977833441E-03       7    6    1         0.3381989791E-01      0.3385068565E-01
          0                10           2             7    6     1       0.5977816333E-03       7    6    1         0.3381946838E-01      0.3383566503E-01
                                                   Max.-Head-Change                         Max.-Flux-Residual
  Residual-Control   Outer-Iter.   Inner-Iter.     Column Row Layer    Maximum-Head-Change  Column Row Layer    Maximum-Flux-Residual          L2-NORM 
          0                11           2             7    6     1       0.5977817070E-03       7    6    1         0.3381915658E-01      0.3383241434E-01
          0                12           2             7    6     1       0.5977647911E-03       7    6    1         0.3381788359E-01      0.3383056283E-01
          0                13           2             7    6     1       0.5977826343E-03       7    6    1         0.3381857624E-01      0.3383113128E-01
          0                14           2             7    6     1       0.5977815340E-03       7    6    1         0.3381819600E-01      0.3383072303E-01
          0                15           2             7    6     1       0.5977815890E-03       7    6    1         0.3381788087E-01      0.3383042564E-01
          0                16           2             7    6     1       0.5977815775E-03       7    6    1         0.3381756180E-01      0.3383006905E-01
          0                17           2             7    6     1       0.5977815715E-03       7    6    1         0.3381724299E-01      0.3382979446E-01
          0                18           2             7    6     1       0.5977815664E-03       7    6    1         0.3381692417E-01      0.3382943016E-01
          0                19           2             7    6     1       0.5977815606E-03       7    6    1         0.3381660533E-01      0.3382913375E-01
          0                20           2             7    6     1       0.5977647005E-03       7    6    1         0.3381533287E-01      0.3382785712E-01
                                                   Max.-Head-Change                         Max.-Flux-Residual
  Residual-Control   Outer-Iter.   Inner-Iter.     Column Row Layer    Maximum-Head-Change  Column Row Layer    Maximum-Flux-Residual          L2-NORM 
          0                21           2             7    6     1       0.5977825722E-03       7    6    1         0.3381602564E-01      0.3382855180E-01
          0                22           2             7    6     1       0.5977814832E-03       7    6    1         0.3381564541E-01      0.3382816442E-01
          0                23           2             7    6     1       0.5977815448E-03       7    6    1         0.3381533036E-01      0.3382783595E-01
          0                24           2             7    6     1       0.5977815360E-03       7    6    1         0.3381501134E-01      0.3382756042E-01
          0                25           2             7    6     1       0.5977815311E-03       7    6    1         0.3381469256E-01      0.3382719135E-01
          0                26           2             7    6     1       0.5977815258E-03       7    6    1         0.3381437378E-01      0.3382688466E-01
          0                27           2             7    6     1       0.5977815213E-03       7    6    1         0.3381405503E-01      0.3382656745E-01
          0                28           2             7    6     1       0.5977646594E-03       7    6    1         0.3381278257E-01      0.3382530226E-01
          0                29           2             7    6     1       0.5977825338E-03       7    6    1         0.3381347548E-01      0.3382597953E-01
          0                30           2             7    6     1       0.5977814435E-03       7    6    1         0.3381309522E-01      0.3382560754E-01
                                                   Max.-Head-Change                         Max.-Flux-Residual
  Residual-Control   Outer-Iter.   Inner-Iter.     Column Row Layer    Maximum-Head-Change  Column Row Layer    Maximum-Flux-Residual          L2-NORM 
          0                31           2             7    6     1       0.5977815051E-03       7    6    1         0.3381278022E-01      0.3382531348E-01
          0                32           2             7    6     1       0.5977814964E-03       7    6    1         0.3381246125E-01      0.3382495473E-01
          0                33           2             7    6     1       0.5977646333E-03       7    6    1         0.3381118883E-01      0.3382369745E-01
          0                34           2             7    6     1       0.5977825100E-03       7    6    1         0.3381188184E-01      0.3382431626E-01
          0                35           2             7    6     1       0.5977814186E-03       7    6    1         0.3381150155E-01      0.3382406768E-01
          0                36           2             7    6     1       0.5977646223E-03       7    6    1         0.3381023291E-01      0.3382274564E-01
          0                37           2             7    6     1       0.5977824955E-03       7    6    1         0.3381092571E-01      0.3382343413E-01
          0                38           2             7    6     1       0.5977814038E-03       7    6    1         0.3381054541E-01      0.3382303117E-01
          0                39           2             7    6     1       0.5977814655E-03       7    6    1         0.3381023047E-01      0.3382275080E-01
          0                40           2             7    6     1       0.5977814564E-03       7    6    1         0.3380991154E-01      0.3382240771E-01
                                                   Max.-Head-Change                         Max.-Flux-Residual
  Residual-Control   Outer-Iter.   Inner-Iter.     Column Row Layer    Maximum-Head-Change  Column Row Layer    Maximum-Flux-Residual          L2-NORM 
          0                41           2             7    6     1       0.5977645930E-03       7    6    1         0.3380863920E-01      0.3382114673E-01
          0                42           2             7    6     1       0.5977824715E-03       7    6    1         0.3380933230E-01      0.3382182828E-01
          0                43           2             7    6     1       0.5977813793E-03       7    6    1         0.3380895199E-01      0.3382144165E-01
          0                44           2             7    6     1       0.5977645806E-03       7    6    1         0.3380768338E-01      0.3382018323E-01
          0                45           2             7    6     1       0.5977824578E-03       7    6    1         0.3380837635E-01      0.3382087902E-01
          0                46           2             7    6     1       0.5977813639E-03       7    6    1         0.3380799598E-01      0.3382048576E-01
          0                47           2             7    6     1       0.5977814256E-03       7    6    1         0.3380768110E-01      0.3382018117E-01
          0                48           2             7    6     1       0.5977814169E-03       7    6    1         0.3380736223E-01      0.3381979082E-01
          0                49           2             7    6     1       0.5977645519E-03       7    6    1         0.3380608993E-01      0.3381864185E-01
          0                50           2             7    6     1       0.5977824336E-03       7    6    1         0.3380678317E-01      0.3381917700E-01
                                                   Max.-Head-Change                         Max.-Flux-Residual
  Residual-Control   Outer-Iter.   Inner-Iter.     Column Row Layer    Maximum-Head-Change  Column Row Layer    Maximum-Flux-Residual          L2-NORM 
          0                51           2             7    6     1       0.5977813389E-03       7    6    1         0.3380640280E-01      0.3381944608E-01
          0                52           2             7    6     1       0.5977645404E-03       7    6    1         0.3380513428E-01      0.3381715792E-01
          0                53           2             7    6     1       0.5977824190E-03       7    6    1         0.3380582733E-01      0.3381834959E-01
          0                54           2             7    6     1       0.5977813244E-03       7    6    1         0.3380544696E-01      0.3381795549E-01
          0                55           2             7    6     1       0.5977813860E-03       7    6    1         0.3380513212E-01      0.3381760805E-01
          0                56           2             7    6     1       0.5977813772E-03       7    6    1         0.3380481331E-01      0.3381728427E-01
          0                57           2             7    6     1       0.5977645108E-03       7    6    1         0.3380354105E-01      0.3381602696E-01
          0                58           2             7    6     1       0.5977823954E-03       7    6    1         0.3380423442E-01      0.3381671093E-01
          0                59           2             7    6     1       0.5977812992E-03       7    6    1         0.3380385401E-01      0.3381635532E-01
          0                60           2             7    6     1       0.5977813614E-03       7    6    1         0.3380353922E-01      0.3381600159E-01
                                                   Max.-Head-Change                         Max.-Flux-Residual
  Residual-Control   Outer-Iter.   Inner-Iter.     Column Row Layer    Maximum-Head-Change  Column Row Layer    Maximum-Flux-Residual          L2-NORM 
          0                61           2             7    6     1       0.5977813524E-03       7    6    1         0.3380322042E-01      0.3381569845E-01
          0                62           2             7    6     1       0.5977813478E-03       7    6    1         0.3380290187E-01      0.3381538157E-01
          0                63           2             7    6     1       0.5977813428E-03       7    6    1         0.3380258331E-01      0.3381504662E-01
          0                64           2             7    6     1       0.5977813375E-03       7    6    1         0.3380226476E-01      0.3381474825E-01
          0                65           2             7    6     1       0.5977813329E-03       7    6    1         0.3380194623E-01      0.3381440613E-01
          0                66           2             7    6     1       0.5977813276E-03       7    6    1         0.3380162769E-01      0.3381410607E-01
          0                67           2             7    6     1       0.5977813230E-03       7    6    1         0.3380130917E-01      0.3381377484E-01
          0                68           2             7    6     1       0.5977813178E-03       7    6    1         0.3380099064E-01      0.3381346435E-01
          0                69           2             7    6     1       0.5977813132E-03       7    6    1         0.3380067213E-01      0.3381315049E-01
          0                70           2             7    6     1       0.5977813077E-03       7    6    1         0.3380035360E-01      0.3381282097E-01
                                                   Max.-Head-Change                         Max.-Flux-Residual
  Residual-Control   Outer-Iter.   Inner-Iter.     Column Row Layer    Maximum-Head-Change  Column Row Layer    Maximum-Flux-Residual          L2-NORM 
          0                71           2             7    6     1       0.5977813030E-03       7    6    1         0.3380003511E-01      0.3381249684E-01
          0                72           2             7    6     1       0.5977812983E-03       7    6    1         0.3379971662E-01      0.3381219796E-01
          0                73           2             7    6     1       0.5977812933E-03       7    6    1         0.3379939811E-01      0.3381185727E-01
          0                74           2             7    6     1       0.5977812878E-03       7    6    1         0.3379907961E-01      0.3381155133E-01
          0                75           2             7    6     1       0.5977812833E-03       7    6    1         0.3379876115E-01      0.3381121789E-01
          0                76           2             7    6     1       0.5977812783E-03       7    6    1         0.3379844267E-01      0.3381091107E-01
          0                77           2             7    6     1       0.5977812733E-03       7    6    1         0.3379812420E-01      0.3381058000E-01
          0                78           2             7    6     1       0.5977812686E-03       7    6    1         0.3379780573E-01      0.3381025671E-01
          0                79           2             7    6     1       0.5977812628E-03       7    6    1         0.3379748726E-01      0.3380994434E-01
          0                80           2             7    6     1       0.5977812588E-03       7    6    1         0.3379716884E-01      0.3380964901E-01
                                                   Max.-Head-Change                         Max.-Flux-Residual
  Residual-Control   Outer-Iter.   Inner-Iter.     Column Row Layer    Maximum-Head-Change  Column Row Layer    Maximum-Flux-Residual          L2-NORM 
          0                81           2             7    6     1       0.5977812534E-03       7    6    1         0.3379685037E-01      0.3380928654E-01
          0                82           2             7    6     1       0.5977812483E-03       7    6    1         0.3379653193E-01      0.3380900391E-01
          0                83           2             7    6     1       0.5977812439E-03       7    6    1         0.3379621351E-01      0.3380866120E-01
          0                84           2             7    6     1       0.5977812385E-03       7    6    1         0.3379589507E-01      0.3380835001E-01
          0                85           2             7    6     1       0.5977812336E-03       7    6    1         0.3379557665E-01      0.3380805001E-01
          0                86           2             7    6     1       0.5977812285E-03       7    6    1         0.3379525824E-01      0.3380770443E-01
          0                87           2             7    6     1       0.5977812237E-03       7    6    1         0.3379493984E-01      0.3380738575E-01
          0                88           2             7    6     1       0.5977812189E-03       7    6    1         0.3379462144E-01      0.3380705836E-01
          0                89           2             7    6     1       0.5977812138E-03       7    6    1         0.3379430304E-01      0.3380676549E-01
          0                90           2             7    6     1       0.5977812089E-03       7    6    1         0.3379398465E-01      0.3380642898E-01
                                                   Max.-Head-Change                         Max.-Flux-Residual
  Residual-Control   Outer-Iter.   Inner-Iter.     Column Row Layer    Maximum-Head-Change  Column Row Layer    Maximum-Flux-Residual          L2-NORM 
          0                91           2             7    6     1       0.5977812041E-03       7    6    1         0.3379366626E-01      0.3380611557E-01
          0                92           2             7    6     1       0.5977811986E-03       7    6    1         0.3379334787E-01      0.3380582316E-01
          0                93           2             7    6     1       0.5977811941E-03       7    6    1         0.3379302952E-01      0.3380545156E-01
          0                94           2             7    6     1       0.5977811892E-03       7    6    1         0.3379271114E-01      0.3380515450E-01
          0                95           2             7    6     1       0.5977811841E-03       7    6    1         0.3379239277E-01      0.3380483510E-01
          0                96           2             7    6     1       0.5977811792E-03       7    6    1         0.3379207442E-01      0.3380453546E-01
          0                97           2             7    6     1       0.5977811739E-03       7    6    1         0.3379175606E-01      0.3380417217E-01
          0                98           2             7    6     1       0.5977811691E-03       7    6    1         0.3379143773E-01      0.3380388389E-01
          0                99           2             7    6     1       0.5977811644E-03       7    6    1         0.3379111940E-01      0.3380355614E-01
          0               100           2             7    6     1       0.5977811590E-03       7    6    1         0.3379080106E-01      0.3380322961E-01
                                                   Max.-Head-Change                         Max.-Flux-Residual
  Residual-Control   Outer-Iter.   Inner-Iter.     Column Row Layer    Maximum-Head-Change  Column Row Layer    Maximum-Flux-Residual          L2-NORM 
          0               101           2             7    6     1       0.5977811547E-03       7    6    1         0.3379048276E-01      0.3380298107E-01
          0               102           2             7    6     1       0.5977811496E-03       7    6    1         0.3379016442E-01      0.3380253540E-01
          0               103           2             7    6     1       0.5977811445E-03       7    6    1         0.3378984609E-01      0.3380229063E-01
          0               104           2             7    6     1       0.5977811395E-03       7    6    1         0.3378952778E-01      0.3380196949E-01
          0               105           2             7    6     1       0.5977811344E-03       7    6    1         0.3378920948E-01      0.3380163162E-01
          0               106           2             7    6     1       0.5977811296E-03       7    6    1         0.3378889119E-01      0.3380132407E-01
          0               107           2             7    6     1       0.5977811247E-03       7    6    1         0.3378857290E-01      0.3380098956E-01
          0               108           2             7    6     1       0.5977811194E-03       7    6    1         0.3378825462E-01      0.3380068305E-01
          0               109           2             7    6     1       0.5977811149E-03       7    6    1         0.3378793636E-01      0.3380037334E-01
          0               110           2             7    6     1       0.5977811098E-03       7    6    1         0.3378761807E-01      0.3380005751E-01
                                                   Max.-Head-Change                         Max.-Flux-Residual
  Residual-Control   Outer-Iter.   Inner-Iter.     Column Row Layer    Maximum-Head-Change  Column Row Layer    Maximum-Flux-Residual          L2-NORM 
          0               111           2             7    6     1       0.5977811043E-03       7    6    1         0.3378729980E-01      0.3379971890E-01
          0               112           2             7    6     1       0.5977811001E-03       7    6    1         0.3378698157E-01      0.3379942398E-01
          0               113           2             7    6     1       0.5977810950E-03       7    6    1         0.3378666331E-01      0.3379908204E-01
          0               114           2             7    6     1       0.5977810900E-03       7    6    1         0.3378634505E-01      0.3379877463E-01
          0               115           2             7    6     1       0.5977810850E-03       7    6    1         0.3378602681E-01      0.3379844638E-01
          0               116           2             7    6     1       0.5977810804E-03       7    6    1         0.3378570858E-01      0.3379811781E-01
          0               117           2             7    6     1       0.5977810746E-03       7    6    1         0.3378539033E-01      0.3379780717E-01
          0               118           2             7    6     1       0.5977810703E-03       7    6    1         0.3378507213E-01      0.3379751979E-01
          0               119           2             7    6     1       0.5977810656E-03       7    6    1         0.3378475391E-01      0.3379715946E-01
          0               120           2             7    6     1       0.5977810598E-03       7    6    1         0.3378443567E-01      0.3379684275E-01
                                                   Max.-Head-Change                         Max.-Flux-Residual
  Residual-Control   Outer-Iter.   Inner-Iter.     Column Row Layer    Maximum-Head-Change  Column Row Layer    Maximum-Flux-Residual          L2-NORM 
          0               121           2             7    6     1       0.5977810552E-03       7    6    1         0.3378411749E-01      0.3379654435E-01
          0               122           2             7    6     1       0.5977810506E-03       7    6    1         0.3378379930E-01      0.3379621391E-01
          0               123           2             7    6     1       0.5977810454E-03       7    6    1         0.3378348108E-01      0.3379590194E-01
          0               124           2             7    6     1       0.5977810401E-03       7    6    1         0.3378316289E-01      0.3379556167E-01
          0               125           2             7    6     1       0.5977810356E-03       7    6    1         0.3378284473E-01      0.3379526065E-01
          0               126           2             7    6     1       0.5977810302E-03       7    6    1         0.3378252654E-01      0.3379493303E-01
          0               127           2             7    6     1       0.5977810259E-03       7    6    1         0.3378220840E-01      0.3379460942E-01
          0               128           2             7    6     1       0.5977810207E-03       7    6    1         0.3378189021E-01      0.3379431890E-01
          0               129           2             7    6     1       0.5977810151E-03       7    6    1         0.3378157204E-01      0.3379396775E-01
          0               130           2             7    6     1       0.5977810111E-03       7    6    1         0.3378125392E-01      0.3379367502E-01
                                                   Max.-Head-Change                         Max.-Flux-Residual
  Residual-Control   Outer-Iter.   Inner-Iter.     Column Row Layer    Maximum-Head-Change  Column Row Layer    Maximum-Flux-Residual          L2-NORM 
          0               131           2             7    6     1       0.5977810052E-03       7    6    1         0.3378093575E-01      0.3379333763E-01
          0               132           2             7    6     1       0.5977810013E-03       7    6    1         0.3378061765E-01      0.3379302505E-01
          0               133           2             7    6     1       0.5977809958E-03       7    6    1         0.3378029948E-01      0.3379270922E-01
          0               134           2             7    6     1       0.5977809906E-03       7    6    1         0.3377998135E-01      0.3379237559E-01
          0               135           2             7    6     1       0.5977809860E-03       7    6    1         0.3377966324E-01      0.3379208195E-01
          0               136           2             7    6     1       0.5977809809E-03       7    6    1         0.3377934512E-01      0.3379171539E-01
          0               137           2             7    6     1       0.5977809759E-03       7    6    1         0.3377902701E-01      0.3379144383E-01
          0               138           2             7    6     1       0.5977809710E-03       7    6    1         0.3377870891E-01      0.3379110787E-01
          0               139           2             7    6     1       0.5977809658E-03       7    6    1         0.3377839081E-01      0.3379078788E-01
          0               140           2             7    6     1       0.5977809613E-03       7    6    1         0.3377807274E-01      0.3379045822E-01
                                                   Max.-Head-Change                         Max.-Flux-Residual
  Residual-Control   Outer-Iter.   Inner-Iter.     Column Row Layer    Maximum-Head-Change  Column Row Layer    Maximum-Flux-Residual          L2-NORM 
          0               141           2             7    6     1       0.5977809561E-03       7    6    1         0.3377775464E-01      0.3379016013E-01
          0               142           2             7    6     1       0.5977809514E-03       7    6    1         0.3377743656E-01      0.3378982242E-01
          0               143           2             7    6     1       0.5977809461E-03       7    6    1         0.3377711848E-01      0.3378951183E-01
          0               144           2             7    6     1       0.5977809410E-03       7    6    1         0.3377680042E-01      0.3378926153E-01
          0               145           2             7    6     1       0.5977809366E-03       7    6    1         0.3377648237E-01      0.3378880636E-01
          0               146           2             7    6     1       0.5977809314E-03       7    6    1         0.3377616431E-01      0.3378853112E-01
          0               147           2             7    6     1       0.5977809268E-03       7    6    1         0.3377584626E-01      0.3378824255E-01
          0               148           2             7    6     1       0.5977809209E-03       7    6    1         0.3377552819E-01      0.3378793150E-01
          0               149           2             7    6     1       0.5977809169E-03       7    6    1         0.3377521019E-01      0.3378758949E-01
          0               150           2             7    6     1       0.5977809114E-03       7    6    1         0.3377489213E-01      0.3378728362E-01
                                                   Max.-Head-Change                         Max.-Flux-Residual
  Residual-Control   Outer-Iter.   Inner-Iter.     Column Row Layer    Maximum-Head-Change  Column Row Layer    Maximum-Flux-Residual          L2-NORM 
          0               151           2             7    6     1       0.5977809069E-03       7    6    1         0.3377457412E-01      0.3378694827E-01
          0               152           2             7    6     1       0.5977809014E-03       7    6    1         0.3377425608E-01      0.3378665976E-01
          0               153           2             7    6     1       0.5977808967E-03       7    6    1         0.3377393808E-01      0.3378631287E-01
          0               154           2             7    6     1       0.5977808914E-03       7    6    1         0.3377362007E-01      0.3378599997E-01
          0               155           2             7    6     1       0.5977808873E-03       7    6    1         0.3377330209E-01      0.3378567419E-01
          0               156           2             7    6     1       0.5977808815E-03       7    6    1         0.3377298406E-01      0.3378539445E-01
          0               157           2             7    6     1       0.5977808769E-03       7    6    1         0.3377266609E-01      0.3378502623E-01
          0               158           2             7    6     1       0.5977808719E-03       7    6    1         0.3377234810E-01      0.3378472664E-01
          0               159           2             7    6     1       0.5977808667E-03       7    6    1         0.3377203013E-01      0.3378440205E-01
          0               160           2             7    6     1       0.5977808622E-03       7    6    1         0.3377171216E-01      0.3378410863E-01
                                                   Max.-Head-Change                         Max.-Flux-Residual
  Residual-Control   Outer-Iter.   Inner-Iter.     Column Row Layer    Maximum-Head-Change  Column Row Layer    Maximum-Flux-Residual          L2-NORM 
          0               161           2             7    6     1       0.5977808572E-03       7    6    1         0.3377139418E-01      0.3378374898E-01
          0               162           2             7    6     1       0.5977808518E-03       7    6    1         0.3377107622E-01      0.3378344740E-01
          0               163           2             7    6     1       0.5977808473E-03       7    6    1         0.3377075828E-01      0.3378313061E-01
          0               164           2             7    6     1       0.5977808422E-03       7    6    1         0.3377044033E-01      0.3378281499E-01
          0               165           2             7    6     1       0.5977808372E-03       7    6    1         0.3377012238E-01      0.3378250021E-01
          0               166           2             7    6     1       0.5977808324E-03       7    6    1         0.3376980444E-01      0.3378216549E-01
          0               167           2             7    6     1       0.5977808272E-03       7    6    1         0.3376948650E-01      0.3378187562E-01
          0               168           2             7    6     1       0.5977808223E-03       7    6    1         0.3376916859E-01      0.3378151991E-01
          0               169           2             7    6     1       0.5977808172E-03       7    6    1         0.3376885067E-01      0.3378120815E-01
          0               170           2             7    6     1       0.5977808128E-03       7    6    1         0.3376853277E-01      0.3378090704E-01
                                                   Max.-Head-Change                         Max.-Flux-Residual
  Residual-Control   Outer-Iter.   Inner-Iter.     Column Row Layer    Maximum-Head-Change  Column Row Layer    Maximum-Flux-Residual          L2-NORM 
          0               171           2             7    6     1       0.5977808074E-03       7    6    1         0.3376821485E-01      0.3378057542E-01
          0               172           2             7    6     1       0.5977808024E-03       7    6    1         0.3376789695E-01      0.3378026117E-01
          0               173           2             7    6     1       0.5977807975E-03       7    6    1         0.3376757906E-01      0.3377993642E-01
          0               174           2             7    6     1       0.5977807927E-03       7    6    1         0.3376726118E-01      0.3377963788E-01
          0               175           2             7    6     1       0.5977807872E-03       7    6    1         0.3376694328E-01      0.3377931465E-01
          0               176           2             7    6     1       0.5977807828E-03       7    6    1         0.3376662544E-01      0.3377896953E-01
          0               177           2             7    6     1       0.5977807779E-03       7    6    1         0.3376630756E-01      0.3377865463E-01
          0               178           2             7    6     1       0.5977807729E-03       7    6    1         0.3376598969E-01      0.3377834520E-01
          0               179           2             7    6     1       0.5977807677E-03       7    6    1         0.3376567182E-01      0.3377802282E-01
          0               180           2             7    6     1       0.5977807628E-03       7    6    1         0.3376535398E-01      0.3377771640E-01
                                                   Max.-Head-Change                         Max.-Flux-Residual
  Residual-Control   Outer-Iter.   Inner-Iter.     Column Row Layer    Maximum-Head-Change  Column Row Layer    Maximum-Flux-Residual          L2-NORM 
          0               181           2             7    6     1       0.5977807581E-03       7    6    1         0.3376503614E-01      0.3377738718E-01
          0               182           2             7    6     1       0.5977807529E-03       7    6    1         0.3376471829E-01      0.3377709896E-01
          0               183           2             7    6     1       0.5977807482E-03       7    6    1         0.3376440046E-01      0.3377672853E-01
          0               184           2             7    6     1       0.5977807431E-03       7    6    1         0.3376408262E-01      0.3377643022E-01
          0               185           2             7    6     1       0.5977807380E-03       7    6    1         0.3376376480E-01      0.3377613110E-01
          0               186           2             7    6     1       0.5977807334E-03       7    6    1         0.3376344699E-01      0.3377577986E-01
          0               187           2             7    6     1       0.5977807277E-03       7    6    1         0.3376312916E-01      0.3377547878E-01
          0               188           2             7    6     1       0.5977807237E-03       7    6    1         0.3376281139E-01      0.3377515140E-01
          0               189           2             7    6     1       0.5977807180E-03       7    6    1         0.3376249356E-01      0.3377485721E-01
          0               190           2             7    6     1       0.5977807134E-03       7    6    1         0.3376217579E-01      0.3377512014E-01
                                                   Max.-Head-Change                         Max.-Flux-Residual
  Residual-Control   Outer-Iter.   Inner-Iter.     Column Row Layer    Maximum-Head-Change  Column Row Layer    Maximum-Flux-Residual          L2-NORM 
          0               191           2             7    6     1       0.5977807082E-03       7    6    1         0.3376185800E-01      0.3377426850E-01
          0               192           2             7    6     1       0.5977807037E-03       7    6    1         0.3376154023E-01      0.3377392914E-01
          0               193           2             7    6     1       0.5977806983E-03       7    6    1         0.3376122243E-01      0.3377355869E-01
          0               194           2             7    6     1       0.5977806935E-03       7    6    1         0.3376090467E-01      0.3377324286E-01
          0               195           2             7    6     1       0.5977806887E-03       7    6    1         0.3376058691E-01      0.3377293557E-01
          0               196           2             7    6     1       0.5977806833E-03       7    6    1         0.3376026914E-01      0.3377260081E-01
          0               197           2             7    6     1       0.5977806789E-03       7    6    1         0.3375995141E-01      0.3377229491E-01
          0               198           2             7    6     1       0.5977806737E-03       7    6    1         0.3375963366E-01      0.3377195174E-01
          0               199           2             7    6     1       0.5977806685E-03       7    6    1         0.3375931591E-01      0.3377166964E-01
          0               200           2             7    6     1       0.5977806641E-03       7    6    1         0.3375899820E-01      0.3377132640E-01

    ------------------------------------------------
       NWT REQUIRED          200 OUTER ITERATIONS 
       AND A TOTAL OF        400 INNER ITERATIONS.
    ------------------------------------------------

 NO OUTPUT CONTROL FOR STRESS PERIOD   19   TIME STEP    2



 STREAM LISTING     PERIOD     19   STEP        2

 LAYER ROW COL. STREAM  RCH.  FLOW INTO     FLOW TO   FLOW OUT OF   OVRLND.     DIRECT     STREAM       STREAM     STREAM     STREAM   STREAMBED  STREAMBED
                SEG.NO.  NO.  STRM. RCH.    AQUIFER    STRM. RCH.    RUNOFF     PRECIP       ET          HEAD       DEPTH      WIDTH   CONDCTNC.   GRADIENT

   1    1    1     1     1    2.8000E+01  2.5860E-10   2.8000E+01  0.000E+00  0.000E+00  0.000E+00  1.09427E+03  1.221E+00  1.361E+01  6.126E-11  1.407E+00
   1    2    2     1     2    2.8000E+01  4.0178E-10   2.8000E+01  0.000E+00  0.000E+00  0.000E+00  1.08928E+03  1.220E+00  1.360E+01  9.520E-11  1.407E+00
   1    3    3     1     3    2.8000E+01  3.4455E-10   2.8000E+01  0.000E+00  0.000E+00  0.000E+00  1.08364E+03  1.221E+00  1.361E+01  8.163E-11  1.407E+00
   1    3    4     1     4    2.8000E+01  3.1878E-10   2.8000E+01  0.000E+00  0.000E+00  0.000E+00  1.07863E+03  1.221E+00  1.361E+01  7.552E-11  1.407E+00
   1    4    5     2     1    2.6000E+01  3.3006E-01   2.5670E+01  0.000E+00  0.000E+00  0.000E+00  1.07317E+03  1.232E+00  1.200E+01  7.800E-02  1.411E+00
   1    5    6     2     2    2.5670E+01  2.5339E-01   2.5417E+01  0.000E+00  0.000E+00  0.000E+00  1.06773E+03  1.223E+00  1.200E+01  6.000E-02  1.408E+00
   1    6    6     2     3    2.5417E+01  2.5296E-01   2.5164E+01  0.000E+00  0.000E+00  0.000E+00  1.06301E+03  1.216E+00  1.200E+01  6.000E-02  1.405E+00
   1    7    6     2     4    2.5164E+01  2.5252E-01   2.4911E+01  0.000E+00  0.000E+00  0.000E+00  1.05828E+03  1.209E+00  1.200E+01  6.000E-02  1.403E+00
   1    8    6     2     5    2.4911E+01  2.5208E-01   2.4659E+01  0.000E+00  0.000E+00  0.000E+00  1.05356E+03  1.201E+00  1.200E+01  6.000E-02  1.400E+00
   1    3    5     3     1    2.0000E+00  2.8252E-01   1.7175E+00  0.000E+00  0.000E+00  0.000E+00  1.07555E+03  1.909E+00  9.636E+00  7.227E-02  1.955E+00
   1    3    6     3     2    1.7175E+00  2.4905E-01   1.4684E+00  0.000E+00  0.000E+00  0.000E+00  1.07264E+03  1.727E+00  8.909E+00  6.682E-02  1.864E+00
   1    3    7     3     3    1.4684E+00  1.9718E-01   1.2712E+00  0.000E+00  0.000E+00  0.000E+00  1.06987E+03  1.555E+00  8.218E+00  5.547E-02  1.777E+00
   1    4    8     3     4    1.2712E+00  2.2567E-01   1.0456E+00  0.000E+00  0.000E+00  0.000E+00  1.06682E+03  1.364E+00  7.455E+00  6.709E-02  1.682E+00
   1    5    8     3     5    1.0456E+00  1.5790E-01   8.8768E-01  0.000E+00  0.000E+00  0.000E+00  1.06362E+03  1.164E+00  6.655E+00  4.991E-02  1.582E+00
   1    6    8     3     6    8.8768E-01  5.5980E-02   8.3170E-01  0.000E+00  0.000E+00  0.000E+00  1.06158E+03  1.036E+00  6.145E+00  1.844E-02  1.518E+00
   1    5   10     4     1    1.0000E+01  9.0919E-02   9.9091E+00  0.000E+00  0.000E+00  0.000E+00  1.07836E+03  6.368E-01  1.000E+01  2.500E-02  1.212E+00
   1    5    9     4     2    9.9091E+00  1.8158E-01   9.7275E+00  0.000E+00  0.000E+00  0.000E+00  1.07154E+03  6.315E-01  1.000E+01  5.000E-02  1.211E+00
   1    6    8     4     3    9.7275E+00  1.2689E-01   9.6006E+00  0.000E+00  0.000E+00  0.000E+00  1.06381E+03  6.256E-01  1.000E+01  3.500E-02  1.209E+00
   1    6    8     5     1    1.0432E+01  2.2686E-09   1.0432E+01  0.000E+00  0.000E+00  0.000E+00  1.05868E+03  6.790E-01  1.542E+01  6.166E-10  1.226E+00
   1    7    7     5     2    1.0432E+01  2.8306E-09   1.0432E+01  0.000E+00  0.000E+00  0.000E+00  1.05418E+03  6.784E-01  1.539E+01  7.695E-10  1.226E+00
   1    8    7     5     3    1.0432E+01  1.9868E-09   1.0432E+01  0.000E+00  0.000E+00  0.000E+00  1.04993E+03  6.794E-01  1.543E+01  5.400E-10  1.226E+00
   1    8    6     5     4    1.0432E+01  1.4217E-09   1.0432E+01  0.000E+00  0.000E+00  0.000E+00  1.04693E+03  6.800E-01  1.545E+01  3.863E-10  1.227E+00
   1    9    6     6     1    2.7917E+01  2.5806E-01   2.7659E+01  0.000E+00  0.000E+00  0.000E+00  1.04403E+03  1.301E+00  1.200E+01  6.000E-02  1.434E+00
   1   10    7     6     2    2.7659E+01  2.5763E-01   2.7402E+01  0.000E+00  0.000E+00  0.000E+00  1.03948E+03  1.294E+00  1.200E+01  6.000E-02  1.431E+00
   1   11    7     6     3    2.7402E+01  2.5719E-01   2.7145E+01  0.000E+00  0.000E+00  0.000E+00  1.03492E+03  1.287E+00  1.200E+01  6.000E-02  1.429E+00
   1   12    7     6     4    2.7145E+01  2.5675E-01   2.6888E+01  0.000E+00  0.000E+00  0.000E+00  1.03037E+03  1.279E+00  1.200E+01  6.000E-02  1.426E+00
   1   13    7     6     5    2.6888E+01  1.0258E-01   2.6785E+01  0.000E+00  0.000E+00  0.000E+00  1.02718E+03  1.274E+00  1.200E+01  2.400E-02  1.425E+00
   1   14    9     7     1    1.5000E+02  2.9539E-08   1.5000E+02  0.000E+00  0.000E+00  0.000E+00  1.03986E+03  2.283E+00  5.528E+01  5.591E-09  1.761E+00
   1   13    8     7     2    1.5000E+02  3.2486E-14   1.5000E+02  0.000E+00  0.000E+00  0.000E+00  1.03478E+03  2.283E+00  5.527E+01  6.150E-15  1.761E+00
   1   13    7     7     3    1.5000E+02  2.9539E-08   1.5000E+02  0.000E+00  0.000E+00  0.000E+00  1.02970E+03  2.283E+00  5.528E+01  5.591E-09  1.761E+00
   1   13    6     8     1    1.7679E+02  2.6430E-11   1.7679E+02  0.000E+00  0.000E+00  0.000E+00  1.02486E+03  2.987E+00  4.332E+01  4.414E-12  1.996E+00
   1   13    5     8     2    1.7679E+02  2.6430E-17   1.7679E+02  0.000E+00  0.000E+00  0.000E+00  1.01861E+03  2.987E+00  4.332E+01  4.414E-18  1.996E+00
   1   13    4     8     3    1.7679E+02  1.7298E-18   1.7679E+02  0.000E+00  0.000E+00  0.000E+00  1.01237E+03  2.990E+00  4.336E+01  4.419E-19  1.305E+00
   1   13    3     8     4    1.7679E+02  1.8744E-05   1.7679E+02  0.000E+00  0.000E+00  0.000E+00  1.00612E+03  2.995E+00  4.343E+01  4.426E-05  1.412E-01
   1   13    2     8     5    1.7679E+02 -2.1339E+00   1.7892E+02  0.000E+00  0.000E+00  0.000E+00  9.99878E+02  3.003E+00  4.354E+01  4.437E+00 -1.603E-01
   1   13    1     8     6    1.7892E+02 -2.0381E+00   1.8096E+02  0.000E+00  0.000E+00  0.000E+00  9.94891E+02  3.016E+00  4.373E+01  2.674E+00 -2.541E-01
   1    6    8     9     1    7.1739E+00  0.0000E+00   7.1739E+00  0.000E+00  0.000E+00  0.000E+00  1.07894E+03  4.415E-01  4.000E+00  0.000E+00  1.147E+00





UNSATURATED ZONE PACKAGE VOLUMETRIC BUDGET FOR  TIME STEP     2 STRESS PERIOD   19
  ------------------------------------------------------------------------------



     CUMULATIVE VOLUMES      L**3       RATES FOR THIS TIME STEP      L**3/T
     ------------------                 ------------------------

           IN:                                      IN:
           ---                                      ---
        INFILTRATION =    80991892.3701          INFILTRATION =          25.6736

          OUT:                                     OUT:
          ----                                     ----
              UZF ET =   571939849.6738                UZF ET =           5.1996
        UZF RECHARGE =  1197878235.4558          UZF RECHARGE =          23.9126

            IN - OUT = -1688826192.7594              IN - OUT =          -3.4386

          STORAGE:                                 STORAGE:
          --------                                 --------
      STORAGE CHANGE = -1688818638.9845        STORAGE CHANGE =          -3.4386

 PERCENT DISCREPANCY IS DIFFERENCE BETWEEN IN-OUT MINUS CHANGE IN STORAGE
 DIVIDED BY THE AVERAGE OF IN AND OUT TIMES 100

 PERCENT DISCREPANCY =          -0.00     PERCENT DISCREPANCY =           0.00







         ****FAILED TO MEET SOLVER CONVERGENCE CRITERIA IN TIME STEP    2 OF STRESS PERIOD   19****
1
  VOLUMETRIC BUDGET FOR ENTIRE MODEL AT END OF TIME STEP    2, STRESS PERIOD  19
  ------------------------------------------------------------------------------

     CUMULATIVE VOLUMES      L**3       RATES FOR THIS TIME STEP      L**3/T
     ------------------                 ------------------------

           IN:                                      IN:
           ---                                      ---
             STORAGE =    21799892.0000               STORAGE =          10.0689
       CONSTANT HEAD =           0.0000         CONSTANT HEAD =           0.0000
               WELLS =           0.0000                 WELLS =           0.0000
     HEAD DEP BOUNDS =    49023236.0000       HEAD DEP BOUNDS =           0.9912
      STREAM LEAKAGE =   189414768.0000        STREAM LEAKAGE =           4.0409
        UZF RECHARGE =  1197878528.0000          UZF RECHARGE =          23.9126
               GW ET =           0.0000                 GW ET =           0.0000
     SURFACE LEAKAGE =           0.0000       SURFACE LEAKAGE =           0.0000

            TOTAL IN =  1458116352.0000              TOTAL IN =          39.0136

          OUT:                                     OUT:
          ----                                     ----
             STORAGE =  1276603776.0000               STORAGE =          23.4919
       CONSTANT HEAD =           0.0000         CONSTANT HEAD =           0.0000
               WELLS =     4465322.5000                 WELLS =           8.8261
     HEAD DEP BOUNDS =    13555860.0000       HEAD DEP BOUNDS =           0.2908
      STREAM LEAKAGE =   122385112.0000        STREAM LEAKAGE =           4.1720
        UZF RECHARGE =           0.0000          UZF RECHARGE =           0.0000
               GW ET =    40957788.0000                 GW ET =           2.1985
     SURFACE LEAKAGE =           0.0000       SURFACE LEAKAGE =           0.0000

           TOTAL OUT =  1457967872.0000             TOTAL OUT =          38.9793

            IN - OUT =      148480.0000              IN - OUT =       3.4286E-02

 PERCENT DISCREPANCY =           0.01     PERCENT DISCREPANCY =           0.09






         TIME SUMMARY AT END OF TIME STEP    2 IN STRESS PERIOD   19
                    SECONDS     MINUTES      HOURS       DAYS        YEARS
                    -----------------------------------------------------------
   TIME STEP LENGTH  87600.      1460.0      24.333      1.0139     2.77588E-03
 STRESS PERIOD TIME 1.75200E+05  2920.0      48.667      2.0278     5.55175E-03
         TOTAL TIME 4.74792E+07 7.91320E+05  13189.      549.53      1.5045    
1
 
 SOLVING FOR HEAD 
                                                   Max.-Head-Change                         Max.-Flux-Residual
  Residual-Control   Outer-Iter.   Inner-Iter.     Column Row Layer    Maximum-Head-Change  Column Row Layer    Maximum-Flux-Residual          L2-NORM 
          0                 1           2             7    6     1      -0.1296806717E+00       7    6    1        -0.7070770114E+01      0.7383228431E+01
          0                 2           2             7    6     1       0.1731078283E+00       7    6    1         0.9533159765E+01      0.9542661563E+01
          0                 3           2             7    6     1      -0.1542019431E-01       7    6    1        -0.8579950089E+00      0.8715009763E+00
          0                 4           2             7    6     1       0.1227114334E-02       7    6    1         0.6873199099E-01      0.9279115160E-01
          0                 5           2             8    2     1       0.2220870676E-03       8    2    1         0.5766968395E-02      0.2812734056E-01
          0                 6           1             8    2     1       0.9983197889E-04       8    2    1         0.2592353802E-02      0.1238924868E-01
          0                 7           1             8    2     1       0.4487616457E-04       8    2    1         0.1165307708E-02      0.5543776119E-02
          0                 8           1             8    2     1       0.2017257877E-04       8    2    1         0.5238254624E-03      0.2481937545E-02
          0                 9           1             8    2     1       0.9067900431E-05       8    2    1         0.2354681809E-03      0.1111278088E-02

    ------------------------------------------------
       NWT REQUIRED            9 OUTER ITERATIONS 
       AND A TOTAL OF         14 INNER ITERATIONS.
    ------------------------------------------------

 NO OUTPUT CONTROL FOR STRESS PERIOD   19   TIME STEP    3
 
 SOLVING FOR HEAD 
                                                   Max.-Head-Change                         Max.-Flux-Residual
  Residual-Control   Outer-Iter.   Inner-Iter.     Column Row Layer    Maximum-Head-Change  Column Row Layer    Maximum-Flux-Residual          L2-NORM 
          0                 1           2             7    6     1      -0.2627535717E+00       7    6    1        -0.1433291215E+02      0.1448057566E+02
          0                 2           2             7    6     1       0.3165731885E+00       7    6    1         0.1743326282E+02      0.1743855571E+02
          0                 3           2             7    6     1      -0.2819759408E-01       7    6    1        -0.1569029581E+01      0.1578357927E+01
          0                 4           2             7    6     1       0.2244267534E-02       7    6    1         0.1256921373E+00      0.1403860635E+00
          0                 5           2             8    2     1       0.2220009529E-03       7    6    1        -0.8831567976E-02      0.2910325982E-01
          0                 6           1             8    2     1       0.9979323606E-04       8    2    1         0.2591348455E-02      0.1238941202E-01
          0                 7           1             8    2     1       0.4485873458E-04       8    2    1         0.1164855411E-02      0.5539527198E-02
          0                 8           1             8    2     1       0.2016473691E-04       8    2    1         0.5236219750E-03      0.2480038345E-02
          0                 9           1             8    2     1       0.9064372240E-05       8    2    1         0.2353766318E-03      0.1110577977E-02

    ------------------------------------------------
       NWT REQUIRED            9 OUTER ITERATIONS 
       AND A TOTAL OF         14 INNER ITERATIONS.
    ------------------------------------------------

 NO OUTPUT CONTROL FOR STRESS PERIOD   19   TIME STEP    4
 
 SOLVING FOR HEAD 
                                                   Max.-Head-Change                         Max.-Flux-Residual
  Residual-Control   Outer-Iter.   Inner-Iter.     Column Row Layer    Maximum-Head-Change  Column Row Layer    Maximum-Flux-Residual          L2-NORM 
          0                 1           2             7    6     1      -0.2642288478E+00       7    6    1        -0.1441491515E+02      0.1455422473E+02
          0                 2           2             7    6     1       0.3167262954E+00       7    6    1         0.1744146398E+02      0.1744662606E+02
          0                 3           2             7    6     1      -0.2821015650E-01       7    6    1        -0.1569767934E+01      0.1579168706E+01
          0                 4           2             7    6     1       0.2245448330E-02       7    6    1         0.1257516766E+00      0.1404239534E+00
          0                 5           2             8    2     1       0.2219130904E-03       7    6    1        -0.8835621002E-02      0.2908202837E-01
          0                 6           1             8    2     1       0.9975370914E-04       8    2    1         0.2590322717E-02      0.1237779274E-01
          0                 7           1             8    2     1       0.4484095181E-04       8    2    1         0.1164393954E-02      0.5534262099E-02
          0                 8           1             8    2     1       0.2015673711E-04       8    2    1         0.5234143800E-03      0.2477704863E-02
          0                 9           1             8    2     1       0.9060773392E-05       8    2    1         0.2352832387E-03      0.1109552147E-02

    ------------------------------------------------
       NWT REQUIRED            9 OUTER ITERATIONS 
       AND A TOTAL OF         14 INNER ITERATIONS.
    ------------------------------------------------

 NO OUTPUT CONTROL FOR STRESS PERIOD   19   TIME STEP    5
 
 SOLVING FOR HEAD 
                                                   Max.-Head-Change                         Max.-Flux-Residual
  Residual-Control   Outer-Iter.   Inner-Iter.     Column Row Layer    Maximum-Head-Change  Column Row Layer    Maximum-Flux-Residual          L2-NORM 
          0                 1           2             7    6     1      -0.2656013869E+00       7    6    1        -0.1449117320E+02      0.1462344366E+02
          0                 2           2             7    6     1       0.3168685687E+00       7    6    1         0.1744909056E+02      0.1745413857E+02
          0                 3           2             7    6     1      -0.2822186154E-01       7    6    1        -0.1570454555E+01      0.1579920337E+01
          0                 4           2             7    6     1       0.2246539920E-02       7    6    1         0.1258070304E+00      0.1404550485E+00
          0                 5           2             8    2     1       0.2218271108E-03       7    6    1        -0.8839395699E-02      0.2905814382E-01
          0                 6           1             8    2     1       0.9971502459E-04       8    2    1         0.2589318942E-02      0.1236510143E-01
          0                 7           1             8    2     1       0.4482354658E-04       8    2    1         0.1163942329E-02      0.5528599589E-02
          0                 8           1             8    2     1       0.2014890588E-04       8    2    1         0.5232111799E-03      0.2475092082E-02
          0                 9           1             8    2     1       0.9057250078E-05       8    2    1         0.2351918138E-03      0.1108235316E-02

    ------------------------------------------------
       NWT REQUIRED            9 OUTER ITERATIONS 
       AND A TOTAL OF         14 INNER ITERATIONS.
    ------------------------------------------------

 NO OUTPUT CONTROL FOR STRESS PERIOD   19   TIME STEP    6
 
 SOLVING FOR HEAD 
                                                   Max.-Head-Change                         Max.-Flux-Residual
  Residual-Control   Outer-Iter.   Inner-Iter.     Column Row Layer    Maximum-Head-Change  Column Row Layer    Maximum-Flux-Residual          L2-NORM 
          0                 1           2             7    6     1      -0.2668789421E+00       7    6    1        -0.1456212905E+02      0.1468847346E+02
          0                 2           2             7    6     1       0.3170007853E+00       7    6    1         0.1745618686E+02      0.1746113961E+02
          0                 3           2             7    6     1      -0.2823276185E-01       7    6    1        -0.1571093427E+01      0.1580620017E+01
          0                 4           2             7    6     1       0.2247555279E-02       7    6    1         0.1258585285E+00      0.1404866241E+00
          0                 5           2             8    2     1       0.2217412141E-03       7    6    1        -0.8842907527E-02      0.2903805466E-01
          0                 6           1             8    2     1       0.9967637881E-04       8    2    1         0.2588316139E-02      0.1235418756E-01
          0                 7           1             8    2     1       0.4480615911E-04       8    2    1         0.1163491154E-02      0.5523645240E-02
          0                 8           1             8    2     1       0.2014108291E-04       8    2    1         0.5230081874E-03      0.2472901092E-02
          0                 9           1             8    2     1       0.9053730015E-05       8    2    1         0.2351004821E-03      0.1107257802E-02

    ------------------------------------------------
       NWT REQUIRED            9 OUTER ITERATIONS 
       AND A TOTAL OF         14 INNER ITERATIONS.
    ------------------------------------------------

 NO OUTPUT CONTROL FOR STRESS PERIOD   19   TIME STEP    7
 
 SOLVING FOR HEAD 
                                                   Max.-Head-Change                         Max.-Flux-Residual
  Residual-Control   Outer-Iter.   Inner-Iter.     Column Row Layer    Maximum-Head-Change  Column Row Layer    Maximum-Flux-Residual          L2-NORM 
          0                 1           2             7    6     1      -0.2680689399E+00       7    6    1        -0.1462818932E+02      0.1474953889E+02
          0                 2           2             7    6     1       0.3171237931E+00       7    6    1         0.1746279355E+02      0.1746766351E+02
          0                 3           2             7    6     1      -0.2824290135E-01       7    6    1        -0.1571688216E+01      0.1581273074E+01
          0                 4           2             7    6     1       0.2248501541E-02       7    6    1         0.1259064768E+00      0.1405153891E+00
          0                 5           2             8    2     1       0.2216535535E-03       7    6    1        -0.8846176069E-02      0.2901837013E-01
          0                 6           1             8    2     1       0.9963694005E-04       8    2    1         0.2587292746E-02      0.1234354080E-01
          0                 7           1             8    2     1       0.4478841549E-04       8    2    1         0.1163030725E-02      0.5518878910E-02
          0                 8           1             8    2     1       0.2013309987E-04       8    2    1         0.5228010364E-03      0.2470851271E-02
          0                 9           1             8    2     1       0.9050138545E-05       8    2    1         0.2350072823E-03      0.1106508686E-02

    ------------------------------------------------
       NWT REQUIRED            9 OUTER ITERATIONS 
       AND A TOTAL OF         14 INNER ITERATIONS.
    ------------------------------------------------

 NO OUTPUT CONTROL FOR STRESS PERIOD   19   TIME STEP    8
 
 SOLVING FOR HEAD 
                                                   Max.-Head-Change                         Max.-Flux-Residual
  Residual-Control   Outer-Iter.   Inner-Iter.     Column Row Layer    Maximum-Head-Change  Column Row Layer    Maximum-Flux-Residual          L2-NORM 
          0                 1           2             7    6     1      -0.2691779310E+00       7    6    1        -0.1468972532E+02      0.1480685116E+02
          0                 2           2             7    6     1       0.3172383226E+00       7    6    1         0.1746894774E+02      0.1747374634E+02
          0                 3           2             7    6     1      -0.2825239359E-01       7    6    1        -0.1572242268E+01      0.1581876567E+01
          0                 4           2             7    6     1       0.2249372277E-02       7    6    1         0.1259511136E+00      0.1405403371E+00
          0                 5           2             8    2     1       0.2215677775E-03       7    6    1        -0.8849229983E-02      0.2899848755E-01
          0                 6           1             8    2     1       0.9959834541E-04       8    2    1         0.2586291340E-02      0.1233298757E-01
          0                 7           1             8    2     1       0.4477105003E-04       8    2    1         0.1162580151E-02      0.5514093117E-02
          0                 8           1             8    2     1       0.2012528602E-04       8    2    1         0.5225983016E-03      0.2468747615E-02
          0                 9           1             8    2     1       0.9046622734E-05       8    2    1         0.2349160651E-03      0.1105361357E-02

    ------------------------------------------------
       NWT REQUIRED            9 OUTER ITERATIONS 
       AND A TOTAL OF         14 INNER ITERATIONS.
    ------------------------------------------------

 NO OUTPUT CONTROL FOR STRESS PERIOD   19   TIME STEP    9
 
 SOLVING FOR HEAD 
                                                   Max.-Head-Change                         Max.-Flux-Residual
  Residual-Control   Outer-Iter.   Inner-Iter.     Column Row Layer    Maximum-Head-Change  Column Row Layer    Maximum-Flux-Residual          L2-NORM 
          0                 1           2             7    6     1      -0.2702120978E+00       7    6    1        -0.1474708893E+02      0.1486062306E+02
          0                 2           2             7    6     1       0.3173449104E+00       7    6    1         0.1747468465E+02      0.1747942208E+02
          0                 3           2             7    6     1      -0.2826123719E-01       7    6    1        -0.1572758744E+01      0.1582437831E+01
          0                 4           2             7    6     1       0.2250186213E-02       7    6    1         0.1259927248E+00      0.1405608350E+00
          0                 5           2             8    2     1       0.2214802373E-03       7    6    1        -0.8852074216E-02      0.2897702677E-01
          0                 6           1             8    2     1       0.9955895867E-04       8    2    1         0.2585269337E-02      0.1232173869E-01
          0                 7           1             8    2     1       0.4475332903E-04       8    2    1         0.1162120325E-02      0.5509064848E-02
          0                 8           1             8    2     1       0.2011731286E-04       8    2    1         0.5223914114E-03      0.2466478809E-02
          0                 9           1             8    2     1       0.9043035267E-05       8    2    1         0.2348229763E-03      0.1104352856E-02

    ------------------------------------------------
       NWT REQUIRED            9 OUTER ITERATIONS 
       AND A TOTAL OF         14 INNER ITERATIONS.
    ------------------------------------------------

 NO OUTPUT CONTROL FOR STRESS PERIOD   19   TIME STEP   10
 
 SOLVING FOR HEAD 
                                                   Max.-Head-Change                         Max.-Flux-Residual
  Residual-Control   Outer-Iter.   Inner-Iter.     Column Row Layer    Maximum-Head-Change  Column Row Layer    Maximum-Flux-Residual          L2-NORM 
          0                 1           2             7    6     1      -0.2711770865E+00       7    6    1        -0.1480058839E+02      0.1491095873E+02
          0                 2           2             7    6     1       0.3174442740E+00       7    6    1         0.1748003509E+02      0.1748471612E+02
          0                 3           2             7    6     1      -0.2826948634E-01       7    6    1        -0.1573240427E+01      0.1582960807E+01
          0                 4           2             7    6     1       0.2250944583E-02       7    6    1         0.1260315308E+00      0.1405807104E+00
          0                 5           2             8    2     1       0.2213927705E-03       7    6    1        -0.8854727305E-02      0.2895795818E-01
          0                 6           1             8    2     1       0.9951960570E-04       8    2    1         0.2584248198E-02      0.1231165611E-01
          0                 7           1             8    2     1       0.4473562292E-04       8    2    1         0.1161660890E-02      0.5504480195E-02
          0                 8           1             8    2     1       0.2010934644E-04       8    2    1         0.5221846991E-03      0.2464350237E-02
          0                 9           1             8    2     1       0.9039450800E-05       8    2    1         0.2347299690E-03      0.1103447158E-02

    ------------------------------------------------
       NWT REQUIRED            9 OUTER ITERATIONS 
       AND A TOTAL OF         14 INNER ITERATIONS.
    ------------------------------------------------

 NO OUTPUT CONTROL FOR STRESS PERIOD   19   TIME STEP   11
 
 SOLVING FOR HEAD 
                                                   Max.-Head-Change                         Max.-Flux-Residual
  Residual-Control   Outer-Iter.   Inner-Iter.     Column Row Layer    Maximum-Head-Change  Column Row Layer    Maximum-Flux-Residual          L2-NORM 
          0                 1           2             7    6     1      -0.2720781336E+00       7    6    1        -0.1485052077E+02      0.1495825646E+02
          0                 2           2             7    6     1       0.3175369258E+00       7    6    1         0.1748502878E+02      0.1748966327E+02
          0                 3           2             7    6     1      -0.2827719365E-01       7    6    1        -0.1573689990E+01      0.1583448936E+01
          0                 4           2             7    6     1       0.2251650472E-02       7    6    1         0.1260677434E+00      0.1405990854E+00
          0                 5           2             8    2     1       0.2213071832E-03       7    6    1        -0.8857204911E-02      0.2893957621E-01
          0                 6           1             8    2     1       0.9948109435E-04       8    2    1         0.2583248984E-02      0.1230196945E-01
          0                 7           1             8    2     1       0.4471829423E-04       8    2    1         0.1161211281E-02      0.5500092198E-02
          0                 8           1             8    2     1       0.2010154911E-04       8    2    1         0.5219823904E-03      0.2462385556E-02
          0                 9           1             8    2     1       0.9035941992E-05       8    2    1         0.2346389351E-03      0.1102568699E-02

    ------------------------------------------------
       NWT REQUIRED            9 OUTER ITERATIONS 
       AND A TOTAL OF         14 INNER ITERATIONS.
    ------------------------------------------------

 NO OUTPUT CONTROL FOR STRESS PERIOD   19   TIME STEP   12
 
 SOLVING FOR HEAD 
                                                   Max.-Head-Change                         Max.-Flux-Residual
  Residual-Control   Outer-Iter.   Inner-Iter.     Column Row Layer    Maximum-Head-Change  Column Row Layer    Maximum-Flux-Residual          L2-NORM 
          0                 1           2             7    6     1      -0.2729198645E+00       7    6    1        -0.1489714592E+02      0.1500265560E+02
          0                 2           2             7    6     1       0.3176233600E+00       7    6    1         0.1748969170E+02      0.1749428584E+02
          0                 3           2             7    6     1      -0.2828438475E-01       7    6    1        -0.1574109903E+01      0.1583903514E+01
          0                 4           2             7    6     1       0.2252293807E-02       7    6    1         0.1261007574E+00      0.1406140590E+00
          0                 5           2             8    2     1       0.2212198148E-03       7    6    1        -0.8859463696E-02      0.2892093998E-01
          0                 6           1             8    2     1       0.9944178340E-04       8    2    1         0.2582228992E-02      0.1229221209E-01
          0                 7           1             8    2     1       0.4470060575E-04       8    2    1         0.1160752330E-02      0.5495698773E-02
          0                 8           1             8    2     1       0.2009359020E-04       8    2    1         0.5217758843E-03      0.2460420573E-02
          0                 9           1             8    2     1       0.9032360777E-05       8    2    1         0.2345460149E-03      0.1101690793E-02

    ------------------------------------------------
       NWT REQUIRED            9 OUTER ITERATIONS 
       AND A TOTAL OF         14 INNER ITERATIONS.
    ------------------------------------------------

 NO OUTPUT CONTROL FOR STRESS PERIOD   19   TIME STEP   13
 
 SOLVING FOR HEAD 
                                                   Max.-Head-Change                         Max.-Flux-Residual
  Residual-Control   Outer-Iter.   Inner-Iter.     Column Row Layer    Maximum-Head-Change  Column Row Layer    Maximum-Flux-Residual          L2-NORM 
          0                 1           2             7    6     1      -0.2734579105E+00       7    6    1        -0.1492713775E+02      0.1503081029E+02
          0                 2           2             7    6     1       0.3174328584E+00       7    6    1         0.1747911479E+02      0.1748367688E+02
          0                 3           2             7    6     1      -0.2826688721E-01       7    6    1        -0.1573143073E+01      0.1582938289E+01
          0                 4           2             7    6     1       0.2250921102E-02       7    6    1         0.1260252306E+00      0.1405194657E+00
          0                 5           2             8    2     1       0.2211325129E-03       7    6    1        -0.8853734549E-02      0.2889479689E-01
          0                 6           1             8    2     1       0.9940250159E-04       8    2    1         0.2581209759E-02      0.1228143465E-01
          0                 7           1             8    2     1       0.4468293090E-04       8    2    1         0.1160293731E-02      0.5490937322E-02
          0                 8           1             8    2     1       0.2008563729E-04       8    2    1         0.5215695399E-03      0.2458301848E-02
          0                 9           1             8    2     1       0.9028782689E-05       3   13    1         0.2401134942E-03      0.1126648680E-02

    ------------------------------------------------
       NWT REQUIRED            9 OUTER ITERATIONS 
       AND A TOTAL OF         14 INNER ITERATIONS.
    ------------------------------------------------

 NO OUTPUT CONTROL FOR STRESS PERIOD   19   TIME STEP   14
 
 SOLVING FOR HEAD 
                                                   Max.-Head-Change                         Max.-Flux-Residual
  Residual-Control   Outer-Iter.   Inner-Iter.     Column Row Layer    Maximum-Head-Change  Column Row Layer    Maximum-Flux-Residual          L2-NORM 
          0                 1           2             7    6     1      -0.2743751963E+00       7    6    1        -0.1497776265E+02      0.1507970779E+02
          0                 2           2             7    6     1       0.3177058987E+00       7    6    1         0.1749407386E+02      0.1749860238E+02
          0                 3           2             7    6     1      -0.2829080164E-01       7    6    1        -0.1574490896E+01      0.1584311277E+01
          0                 4           2             7    6     1       0.2252892747E-02       7    6    1         0.1261332850E+00      0.1406021989E+00
          0                 5           2             8    2     1       0.2210452583E-03       7    6    1        -0.8861282249E-02      0.2887963825E-01
          0                 6           1             8    2     1       0.9936324028E-04       8    2    1         0.2580191079E-02      0.1227208144E-01
          0                 7           1             8    2     1       0.4466526506E-04       8    2    1         0.1159835363E-02      0.5486696707E-02
          0                 8           1             8    2     1       0.2007768789E-04       8    2    1         0.5213632841E-03      0.2456501977E-02
          0                 9           1             8    2     1       0.9025205726E-05       8    2    1         0.2343603644E-03      0.1099897413E-02

    ------------------------------------------------
       NWT REQUIRED            9 OUTER ITERATIONS 
       AND A TOTAL OF         14 INNER ITERATIONS.
    ------------------------------------------------

 NO OUTPUT CONTROL FOR STRESS PERIOD   19   TIME STEP   15
 
 SOLVING FOR HEAD 
                                                   Max.-Head-Change                         Max.-Flux-Residual
  Residual-Control   Outer-Iter.   Inner-Iter.     Column Row Layer    Maximum-Head-Change  Column Row Layer    Maximum-Flux-Residual          L2-NORM 
          0                 1           2             7    6     1      -0.2751312063E+00       7    6    1        -0.1501954383E+02      0.1512004606E+02
          0                 2           2             7    6     1       0.3178496765E+00       7    6    1         0.1750192326E+02      0.1750642399E+02
          0                 3           2             7    6     1      -0.2830325111E-01       7    6    1        -0.1575199365E+01      0.1585043453E+01
          0                 4           2             7    6     1       0.2253946326E-02       7    6    1         0.1261901955E+00      0.1406383111E+00
          0                 5           2             8    2     1       0.2209580566E-03       7    6    1        -0.8865232010E-02      0.2886259521E-01
          0                 6           1             8    2     1       0.9932400248E-04       8    2    1         0.2579173021E-02      0.1226582657E-01
          0                 7           1             8    2     1       0.4464760910E-04       8    2    1         0.1159377271E-02      0.5482639108E-02
          0                 8           1             8    2     1       0.2006974361E-04       8    2    1         0.5211571591E-03      0.2454575572E-02
          0                 9           1             8    2     1       0.9021630513E-05       8    2    1         0.2342676099E-03      0.1099078982E-02

    ------------------------------------------------
       NWT REQUIRED            9 OUTER ITERATIONS 
       AND A TOTAL OF         14 INNER ITERATIONS.
    ------------------------------------------------

 NO OUTPUT CONTROL FOR STRESS PERIOD   19   TIME STEP   16
 
 SOLVING FOR HEAD 
                                                   Max.-Head-Change                         Max.-Flux-Residual
  Residual-Control   Outer-Iter.   Inner-Iter.     Column Row Layer    Maximum-Head-Change  Column Row Layer    Maximum-Flux-Residual          L2-NORM 
          0                 1           2             7    6     1      -0.2757758701E+00       7    6    1        -0.1505520584E+02      0.1515448822E+02
          0                 2           2             7    6     1       0.3179153023E+00       7    6    1         0.1750547680E+02      0.1750995424E+02
          0                 3           2             7    6     1      -0.2830868112E-01       7    6    1        -0.1575497866E+01      0.1585316313E+01
          0                 4           2             7    6     1       0.2254368412E-02       7    6    1         0.1262179534E+00      0.1406350305E+00
          0                 5           2             8    2     1       0.2208709159E-03       7    6    1        -0.8866620928E-02      0.2883958349E-01
          0                 6           1             8    2     1       0.9928479245E-04       8    2    1         0.2578155669E-02      0.1225375258E-01
          0                 7           1             8    2     1       0.4462996589E-04       8    2    1         0.1158919500E-02      0.5478607402E-02
          0                 8           1             8    2     1       0.2006180446E-04       8    2    1         0.5209511786E-03      0.2452881198E-02
          0                 9           1             8    2     1       0.9018058678E-05       8    2    1         0.2341749303E-03      0.1098269698E-02

    ------------------------------------------------
       NWT REQUIRED            9 OUTER ITERATIONS 
       AND A TOTAL OF         14 INNER ITERATIONS.
    ------------------------------------------------

 NO OUTPUT CONTROL FOR STRESS PERIOD   19   TIME STEP   17
 
 SOLVING FOR HEAD 
                                                   Max.-Head-Change                         Max.-Flux-Residual
  Residual-Control   Outer-Iter.   Inner-Iter.     Column Row Layer    Maximum-Head-Change  Column Row Layer    Maximum-Flux-Residual          L2-NORM 
          0                 1           2             7    6     1      -0.2763799280E+00       7    6    1        -0.1508860807E+02      0.1518681425E+02
          0                 2           2             7    6     1       0.3179767177E+00       7    6    1         0.1750880563E+02      0.1751326068E+02
          0                 3           2             7    6     1      -0.2475452515E-01       7    6    1        -0.1378002829E+01      0.1389184289E+01
          0                 4           2             7    6     1      -0.1568410947E-02       7    6    1        -0.8736828799E-01      0.1071975154E+00
          0                 5           2             8    2     1       0.2207837994E-03       7    6    1         0.7001858371E-02      0.2824059143E-01
          0                 6           1             8    2     1       0.9924559042E-04       8    2    1         0.2577138591E-02      0.1223951808E-01
          0                 7           1             8    2     1       0.4461232518E-04       8    2    1         0.1158461819E-02      0.5473831043E-02
          0                 8           1             8    2     1       0.2005386631E-04       8    2    1         0.5207452222E-03      0.2450718039E-02
          0                 9           1             8    2     1       0.9014486091E-05       8    2    1         0.2340822450E-03      0.1097359071E-02

    ------------------------------------------------
       NWT REQUIRED            9 OUTER ITERATIONS 
       AND A TOTAL OF         14 INNER ITERATIONS.
    ------------------------------------------------

 NO OUTPUT CONTROL FOR STRESS PERIOD   19   TIME STEP   18
 
 SOLVING FOR HEAD 
                                                   Max.-Head-Change                         Max.-Flux-Residual
  Residual-Control   Outer-Iter.   Inner-Iter.     Column Row Layer    Maximum-Head-Change  Column Row Layer    Maximum-Flux-Residual          L2-NORM 
          0                 1           2             7    6     1      -0.2769462104E+00       7    6    1        -0.1511990917E+02      0.1521709350E+02
          0                 2           2             7    6     1       0.3180342204E+00       7    6    1         0.1751192547E+02      0.1751635934E+02
          0                 3           2             7    6     1      -0.1825248837E-01       7    6    1        -0.1016722097E+01      0.1031852072E+01
          0                 4           2             7    6     1      -0.3216194045E-02       7    6    1        -0.1789815650E+00      0.1895562402E+00
          0                 5           2             7    6     1      -0.5674748112E-03       7    6    1        -0.3155220110E-01      0.4174512744E-01
          0                 6           1             7    6     1      -0.1002497689E-03       7    6    1        -0.5569532082E-02      0.1342828734E-01
          0                 7           1             8    2     1       0.4459469761E-04       8    2    1         0.1158004474E-02      0.5557518917E-02
          0                 8           1             8    2     1       0.2004593417E-04       8    2    1         0.5205394275E-03      0.2455072872E-02
          0                 9           1             8    2     1       0.9010917007E-05       8    2    1         0.2339896439E-03      0.1096967800E-02

    ------------------------------------------------
       NWT REQUIRED            9 OUTER ITERATIONS 
       AND A TOTAL OF         14 INNER ITERATIONS.
    ------------------------------------------------

 NO OUTPUT CONTROL FOR STRESS PERIOD   19   TIME STEP   19
 
 SOLVING FOR HEAD 
                                                   Max.-Head-Change                         Max.-Flux-Residual
  Residual-Control   Outer-Iter.   Inner-Iter.     Column Row Layer    Maximum-Head-Change  Column Row Layer    Maximum-Flux-Residual          L2-NORM 
          0                 1           2             7    6     1      -0.2749499717E+00       7    6    1        -0.1501149851E+02      0.1510889854E+02
          0                 2           2             7    6     1       0.3151288367E+00       7    6    1         0.1735187025E+02      0.1735632671E+02
          0                 3           2             7    6     1      -0.1505637803E-01       7    6    1        -0.8390970359E+00      0.8571981472E+00
          0                 4           2             7    6     1      -0.2651043630E-02       7    6    1        -0.1475948639E+00      0.1602857308E+00
          0                 5           2             7    6     1      -0.4674498320E-03       7    6    1        -0.2600098351E-01      0.3771869720E-01
          0                 6           1             8    2     1       0.9916644616E-04       7    6    1        -0.4586794719E-02      0.1304369625E-01
          0                 7           1             8    2     1       0.4457671224E-04       8    2    1         0.1157537821E-02      0.5525611095E-02
          0                 8           1             8    2     1       0.2003784157E-04       8    2    1         0.5203294528E-03      0.2451416147E-02
          0                 9           1             8    2     1       0.9007275515E-05       8    2    1         0.2338951634E-03      0.1096087109E-02

    ------------------------------------------------
       NWT REQUIRED            9 OUTER ITERATIONS 
       AND A TOTAL OF         14 INNER ITERATIONS.
    ------------------------------------------------

 NO OUTPUT CONTROL FOR STRESS PERIOD   19   TIME STEP   20
 
 SOLVING FOR HEAD 
                                                   Max.-Head-Change                         Max.-Flux-Residual
  Residual-Control   Outer-Iter.   Inner-Iter.     Column Row Layer    Maximum-Head-Change  Column Row Layer    Maximum-Flux-Residual          L2-NORM 
          0                 1           2             7    6     1      -0.2758292915E+00       7    6    1        -0.1506005501E+02      0.1515690392E+02
          0                 2           2             7    6     1       0.3152180697E+00       7    6    1         0.1735671173E+02      0.1736115173E+02
          0                 3           2             7    6     1      -0.1526689096E-01       7    6    1        -0.8508124980E+00      0.8687312902E+00
          0                 4           2             7    6     1      -0.2688196220E-02       7    6    1        -0.1496601708E+00      0.1621762486E+00
          0                 5           2             7    6     1      -0.4740158581E-03       7    6    1        -0.2636568902E-01      0.3795757402E-01
          0                 6           1             8    2     1       0.9912730828E-04       7    6    1        -0.4651275703E-02      0.1305874554E-01
          0                 7           1             8    2     1       0.4455910018E-04       8    2    1         0.1157080887E-02      0.5523659344E-02
          0                 8           1             8    2     1       0.2002991568E-04       8    2    1         0.5201238258E-03      0.2449985855E-02
          0                 9           1             8    2     1       0.9003708932E-05       8    2    1         0.2338026293E-03      0.1095344478E-02

    ------------------------------------------------
       NWT REQUIRED            9 OUTER ITERATIONS 
       AND A TOTAL OF         14 INNER ITERATIONS.
    ------------------------------------------------

 NO OUTPUT CONTROL FOR STRESS PERIOD   19   TIME STEP   21
 
 SOLVING FOR HEAD 
                                                   Max.-Head-Change                         Max.-Flux-Residual
  Residual-Control   Outer-Iter.   Inner-Iter.     Column Row Layer    Maximum-Head-Change  Column Row Layer    Maximum-Flux-Residual          L2-NORM 
          0                 1           2             7    6     1      -0.2766422140E+00       7    6    1        -0.1510492895E+02      0.1520132523E+02
          0                 2           2             7    6     1       0.3153004127E+00       7    6    1         0.1736118691E+02      0.1736561339E+02
          0                 3           2             7    6     1      -0.1546158075E-01       7    6    1        -0.8616463916E+00      0.8793973117E+00
          0                 4           2             7    6     1      -0.2722553909E-02       7    6    1        -0.1515703398E+00      0.1639268705E+00
          0                 5           2             7    6     1      -0.4800868824E-03       7    6    1        -0.2670293597E-01      0.3817835315E-01
          0                 6           1             8    2     1       0.9908818754E-04       7    6    1        -0.4710892023E-02      0.1307431723E-01
          0                 7           1             8    2     1       0.4454149548E-04       8    2    1         0.1156624156E-02      0.5526724450E-02
          0                 8           1             8    2     1       0.2002199341E-04       8    2    1         0.5199182928E-03      0.2448211921E-02
          0                 9           1             8    2     1       0.9000143599E-05       8    2    1         0.2337101369E-03      0.1094543478E-02

    ------------------------------------------------
       NWT REQUIRED            9 OUTER ITERATIONS 
       AND A TOTAL OF         14 INNER ITERATIONS.
    ------------------------------------------------

 NO OUTPUT CONTROL FOR STRESS PERIOD   19   TIME STEP   22
 
 SOLVING FOR HEAD 
                                                   Max.-Head-Change                         Max.-Flux-Residual
  Residual-Control   Outer-Iter.   Inner-Iter.     Column Row Layer    Maximum-Head-Change  Column Row Layer    Maximum-Flux-Residual          L2-NORM 
          0                 1           2             7    6     1      -0.2773942883E+00       7    6    1        -0.1514642638E+02      0.1524242721E+02
          0                 2           2             7    6     1       0.3153765558E+00       7    6    1         0.1736532609E+02      0.1736974035E+02
          0                 3           2             7    6     1      -0.1564177726E-01       7    6    1        -0.8716705472E+00      0.8892537925E+00
          0                 4           2             7    6     1      -0.2754368744E-02       7    6    1        -0.1533386354E+00      0.1655478312E+00
          0                 5           2             7    6     1      -0.4857108748E-03       7    6    1        -0.2701527318E-01      0.3838316045E-01
          0                 6           1             8    2     1       0.9904827532E-04       7    6    1        -0.4766126363E-02      0.1308355061E-01
          0                 7           1             8    2     1       0.4452353626E-04       8    2    1         0.1156158185E-02      0.5518828705E-02
          0                 8           1             8    2     1       0.2001391232E-04       8    2    1         0.5197086206E-03      0.2446537234E-02
          0                 9           1             8    2     1       0.8996507609E-05       8    2    1         0.2336157910E-03      0.1093774799E-02

    ------------------------------------------------
       NWT REQUIRED            9 OUTER ITERATIONS 
       AND A TOTAL OF         14 INNER ITERATIONS.
    ------------------------------------------------

 NO OUTPUT CONTROL FOR STRESS PERIOD   19   TIME STEP   23
 
 SOLVING FOR HEAD 
                                                   Max.-Head-Change                         Max.-Flux-Residual
  Residual-Control   Outer-Iter.   Inner-Iter.     Column Row Layer    Maximum-Head-Change  Column Row Layer    Maximum-Flux-Residual          L2-NORM 
          0                 1           2             7    6     1      -0.2780905112E+00       7    6    1        -0.1518482552E+02      0.1528046877E+02
          0                 2           2             7    6     1       0.3154469146E+00       7    6    1         0.1736915687E+02      0.1737355955E+02
          0                 3           2             7    6     1      -0.1580861260E-01       7    6    1        -0.8809527497E+00      0.8983892135E+00
          0                 4           2             7    6     1      -0.2783818566E-02       7    6    1        -0.1549756865E+00      0.1670521842E+00
          0                 5           2             7    6     1      -0.4909158582E-03       7    6    1        -0.2730437209E-01      0.3857456903E-01
          0                 6           1             8    2     1       0.9900918946E-04       7    6    1        -0.4817242397E-02      0.1309487863E-01
          0                 7           1             8    2     1       0.4450594670E-04       8    2    1         0.1155701856E-02      0.5516695284E-02
          0                 8           1             8    2     1       0.2000599681E-04       8    2    1         0.5195032616E-03      0.2445150335E-02
          0                 9           1             8    2     1       0.8992945278E-05       8    2    1         0.2335233715E-03      0.1093341445E-02

    ------------------------------------------------
       NWT REQUIRED            9 OUTER ITERATIONS 
       AND A TOTAL OF         14 INNER ITERATIONS.
    ------------------------------------------------

 NO OUTPUT CONTROL FOR STRESS PERIOD   19   TIME STEP   24
 
 SOLVING FOR HEAD 
                                                   Max.-Head-Change                         Max.-Flux-Residual
  Residual-Control   Outer-Iter.   Inner-Iter.     Column Row Layer    Maximum-Head-Change  Column Row Layer    Maximum-Flux-Residual          L2-NORM 
          0                 1           2             7    6     1      -0.2787353197E+00       7    6    1        -0.1522037369E+02      0.1531573697E+02
          0                 2           2             7    6     1       0.2672087347E-01       7    6    1         0.1471527319E+01      0.1522452887E+01
          0                 3           2             8    2     1       0.1089610213E-02       7    6    1        -0.3360901548E-01      0.1460216444E+00
          0                 4           2             7    6     1       0.1810967063E-02       7    6    1         0.1015190950E+00      0.1185100581E+00
          0                 5           2             7    6     1       0.1635496830E-02       7    6    1         0.9168950941E-01      0.9567352080E-01
          0                 6           2             7    6     1       0.1647727248E-02       7    6    1         0.9237816044E-01      0.9321372497E-01
          0                 7           2             7    6     1       0.1646865561E-02       7    6    1         0.9232967320E-01      0.9252883069E-01
          0                 8           2             7    6     1       0.1646921586E-02       7    6    1         0.9233213741E-01      0.9240326636E-01
          0                 9           2             7    6     1       0.1646899281E-02       7    6    1         0.9233008101E-01      0.9237545306E-01
          0                10           2             7    6     1       0.1646917358E-02       7    6    1         0.9233025367E-01      0.9237047956E-01
                                                   Max.-Head-Change                         Max.-Flux-Residual
  Residual-Control   Outer-Iter.   Inner-Iter.     Column Row Layer    Maximum-Head-Change  Column Row Layer    Maximum-Flux-Residual          L2-NORM 
          0                11           2             7    6     1       0.1646898860E-02       7    6    1         0.9232836326E-01      0.9236756146E-01
          0                12           2             7    6     1       0.1646917052E-02       7    6    1         0.9232852572E-01      0.9236746536E-01
          0                13           2             7    6     1       0.1646915701E-02       7    6    1         0.9232759021E-01      0.9236650876E-01
          0                14           2             7    6     1       0.1646915743E-02       7    6    1         0.9232673204E-01      0.9236562939E-01
          0                15           2             7    6     1       0.1646915693E-02       7    6    1         0.9232586846E-01      0.9236477705E-01
          0                16           2             7    6     1       0.1646898646E-02       7    6    1         0.9232405163E-01      0.9236293594E-01
          0                17           2             7    6     1       0.1646916812E-02       7    6    1         0.9232420926E-01      0.9236308172E-01
          0                18           2             7    6     1       0.1646915494E-02       7    6    1         0.9232327423E-01      0.9236214458E-01
          0                19           2             7    6     1       0.1646898537E-02       7    6    1         0.9232146248E-01      0.9236032902E-01
          0                20           2             7    6     1       0.1646916700E-02       7    6    1         0.9232161986E-01      0.9236048111E-01
                                                   Max.-Head-Change                         Max.-Flux-Residual
  Residual-Control   Outer-Iter.   Inner-Iter.     Column Row Layer    Maximum-Head-Change  Column Row Layer    Maximum-Flux-Residual          L2-NORM 
          0                21           2             7    6     1       0.1646915382E-02       7    6    1         0.9232068486E-01      0.9235955190E-01
          0                22           2             7    6     1       0.1646915436E-02       7    6    1         0.9231982684E-01      0.9235866596E-01
          0                23           2             7    6     1       0.1646898382E-02       7    6    1         0.9231800974E-01      0.9235701590E-01
          0                24           2             7    6     1       0.1646899542E-02       7    6    1         0.9231721392E-01      0.9235588395E-01
          0                25           2             7    6     1       0.1646916430E-02       7    6    1         0.9231729981E-01      0.9235613204E-01
          0                26           2             7    6     1       0.1646915203E-02       7    6    1         0.9231636991E-01      0.9235520535E-01
          0                27           2             7    6     1       0.1646898239E-02       7    6    1         0.9231455792E-01      0.9235337767E-01
          0                28           2             7    6     1       0.1646899393E-02       7    6    1         0.9231376185E-01      0.9235259317E-01
          0                29           2             7    6     1       0.1646916283E-02       7    6    1         0.9231384785E-01      0.9235265188E-01
          0                30           2             7    6     1       0.1646915054E-02       7    6    1         0.9231291796E-01      0.9235168852E-01
                                                   Max.-Head-Change                         Max.-Flux-Residual
  Residual-Control   Outer-Iter.   Inner-Iter.     Column Row Layer    Maximum-Head-Change  Column Row Layer    Maximum-Flux-Residual          L2-NORM 
          0                31           2             7    6     1       0.1646898090E-02       7    6    1         0.9231110607E-01      0.9234990312E-01
          0                32           2             7    6     1       0.1646899244E-02       7    6    1         0.9231031009E-01      0.9234910401E-01
          0                33           2             7    6     1       0.1646916135E-02       7    6    1         0.9231039614E-01      0.9234915694E-01
          0                34           2             7    6     1       0.1646914905E-02       7    6    1         0.9230946628E-01      0.9234827660E-01
          0                35           2             7    6     1       0.1646897941E-02       7    6    1         0.9230765446E-01      0.9234641353E-01
          0                36           2             7    6     1       0.1646899096E-02       7    6    1         0.9230685857E-01      0.9234560777E-01
          0                37           2             7    6     1       0.1646915987E-02       7    6    1         0.9230694469E-01      0.9234571309E-01
          0                38           2             7    6     1       0.1646914757E-02       7    6    1         0.9230601487E-01      0.9234475698E-01
          0                39           2             7    6     1       0.1646897791E-02       7    6    1         0.9230420310E-01      0.9234293902E-01
          0                40           2             7    6     1       0.1646898948E-02       7    6    1         0.9230340733E-01      0.9234215270E-01
                                                   Max.-Head-Change                         Max.-Flux-Residual
  Residual-Control   Outer-Iter.   Inner-Iter.     Column Row Layer    Maximum-Head-Change  Column Row Layer    Maximum-Flux-Residual          L2-NORM 
          0                41           2             7    6     1       0.1646915839E-02       7    6    1         0.9230349349E-01      0.9234221928E-01
          0                42           2             7    6     1       0.1646914608E-02       7    6    1         0.9230256369E-01      0.9234129081E-01
          0                43           2             7    6     1       0.1646914656E-02       7    6    1         0.9230170567E-01      0.9234042965E-01
          0                44           2             7    6     1       0.1646914613E-02       7    6    1         0.9230084261E-01      0.9233955874E-01
          0                45           2             7    6     1       0.1646914576E-02       7    6    1         0.9229997992E-01      0.9233867865E-01
          0                46           2             7    6     1       0.1646914539E-02       7    6    1         0.9229911720E-01      0.9233780635E-01
          0                47           2             7    6     1       0.1646914502E-02       7    6    1         0.9229825452E-01      0.9233695406E-01
          0                48           2             7    6     1       0.1646914464E-02       7    6    1         0.9229739184E-01      0.9233609351E-01
          0                49           2             7    6     1       0.1646914428E-02       7    6    1         0.9229652921E-01      0.9233519790E-01
          0                50           2             7    6     1       0.1646914391E-02       7    6    1         0.9229566657E-01      0.9233434836E-01
                                                   Max.-Head-Change                         Max.-Flux-Residual
  Residual-Control   Outer-Iter.   Inner-Iter.     Column Row Layer    Maximum-Head-Change  Column Row Layer    Maximum-Flux-Residual          L2-NORM 
          0                51           2             7    6     1       0.1646914353E-02       7    6    1         0.9229480392E-01      0.9233347125E-01
          0                52           2             7    6     1       0.1646914316E-02       7    6    1         0.9229394134E-01      0.9233259172E-01
          0                53           2             7    6     1       0.1646914279E-02       7    6    1         0.9229307873E-01      0.9233174655E-01
          0                54           2             7    6     1       0.1646914242E-02       7    6    1         0.9229221617E-01      0.9233084663E-01
          0                55           2             7    6     1       0.1646914205E-02       7    6    1         0.9229135361E-01      0.9233002118E-01
          0                56           2             7    6     1       0.1646914168E-02       7    6    1         0.9229049107E-01      0.9232912632E-01
          0                57           2             7    6     1       0.1646914131E-02       7    6    1         0.9228962853E-01      0.9232824411E-01
          0                58           2             7    6     1       0.1646914093E-02       7    6    1         0.9228876602E-01      0.9232739933E-01
          0                59           2             7    6     1       0.1646914056E-02       7    6    1         0.9228790354E-01      0.9232653506E-01
          0                60           2             7    6     1       0.1646914019E-02       7    6    1         0.9228704106E-01      0.9232564528E-01
                                                   Max.-Head-Change                         Max.-Flux-Residual
  Residual-Control   Outer-Iter.   Inner-Iter.     Column Row Layer    Maximum-Head-Change  Column Row Layer    Maximum-Flux-Residual          L2-NORM 
          0                61           2             7    6     1       0.1646913982E-02       7    6    1         0.9228617861E-01      0.9232478637E-01
          0                62           2             7    6     1       0.1646913945E-02       7    6    1         0.9228531616E-01      0.9232390311E-01
          0                63           2             7    6     1       0.1646913908E-02       7    6    1         0.9228445374E-01      0.9232305361E-01
          0                64           2             7    6     1       0.1646913871E-02       7    6    1         0.9228359132E-01      0.9232217267E-01
          0                65           2             7    6     1       0.1646913833E-02       7    6    1         0.9228272893E-01      0.9232132502E-01
          0                66           2             7    6     1       0.1646913797E-02       7    6    1         0.9228186655E-01      0.9232043867E-01
          0                67           2             7    6     1       0.1646913759E-02       7    6    1         0.9228100418E-01      0.9231957111E-01
          0                68           2             7    6     1       0.1646913722E-02       7    6    1         0.9228014184E-01      0.9231869755E-01
          0                69           2             7    6     1       0.1646913685E-02       7    6    1         0.9227927950E-01      0.9231784984E-01
          0                70           2             7    6     1       0.1646913648E-02       7    6    1         0.9227841719E-01      0.9231697239E-01
                                                   Max.-Head-Change                         Max.-Flux-Residual
  Residual-Control   Outer-Iter.   Inner-Iter.     Column Row Layer    Maximum-Head-Change  Column Row Layer    Maximum-Flux-Residual          L2-NORM 
          0                71           2             7    6     1       0.1646913611E-02       7    6    1         0.9227755489E-01      0.9231609592E-01
          0                72           2             7    6     1       0.1646913574E-02       7    6    1         0.9227669260E-01      0.9231520733E-01
          0                73           2             7    6     1       0.1646913537E-02       7    6    1         0.9227583034E-01      0.9231443808E-01
          0                74           2             7    6     1       0.1646913499E-02       7    6    1         0.9227496807E-01      0.9231342784E-01
          0                75           2             7    6     1       0.1646913462E-02       7    6    1         0.9227410585E-01      0.9231262769E-01
          0                76           2             7    6     1       0.1646913425E-02       7    6    1         0.9227324364E-01      0.9231178079E-01
          0                77           2             7    6     1       0.1646913388E-02       7    6    1         0.9227238142E-01      0.9231086592E-01
          0                78           2             7    6     1       0.1646913351E-02       7    6    1         0.9227151925E-01      0.9231002558E-01
          0                79           2             7    6     1       0.1646913314E-02       7    6    1         0.9227065707E-01      0.9230915086E-01
          0                80           2             7    6     1       0.1646913277E-02       7    6    1         0.9226979491E-01      0.9230827881E-01
                                                   Max.-Head-Change                         Max.-Flux-Residual
  Residual-Control   Outer-Iter.   Inner-Iter.     Column Row Layer    Maximum-Head-Change  Column Row Layer    Maximum-Flux-Residual          L2-NORM 
          0                81           2             7    6     1       0.1646913110E-02       7    6    1         0.9226893105E-01      0.9230743081E-01
          0                82           2             7    6     1       0.1646912840E-02       7    6    1         0.9226806552E-01      0.9230652961E-01
          0                83           2             7    6     1       0.1646912635E-02       7    6    1         0.9226720368E-01      0.9230567137E-01
          0                84           2             7    6     1       0.1646912426E-02       7    6    1         0.9226634158E-01      0.9230479611E-01
          0                85           2             7    6     1       0.1646912216E-02       7    6    1         0.9226547951E-01      0.9230394633E-01
          0                86           2             7    6     1       0.1646912007E-02       7    6    1         0.9226461745E-01      0.9230307038E-01
          0                87           2             7    6     1       0.1646911797E-02       7    6    1         0.9226375543E-01      0.9230220166E-01
          0                88           2             7    6     1       0.1646911588E-02       7    6    1         0.9226289341E-01      0.9230133591E-01
          0                89           2             7    6     1       0.1646911379E-02       7    6    1         0.9226203142E-01      0.9230045836E-01
          0                90           2             7    6     1       0.1646911169E-02       7    6    1         0.9226116943E-01      0.9229960629E-01
                                                   Max.-Head-Change                         Max.-Flux-Residual
  Residual-Control   Outer-Iter.   Inner-Iter.     Column Row Layer    Maximum-Head-Change  Column Row Layer    Maximum-Flux-Residual          L2-NORM 
          0                91           2             7    6     1       0.1646910959E-02       7    6    1         0.9226030745E-01      0.9229872115E-01
          0                92           2             7    6     1       0.1646910751E-02       7    6    1         0.9225944551E-01      0.9229786625E-01
          0                93           2             7    6     1       0.1646910541E-02       7    6    1         0.9225858356E-01      0.9229698525E-01
          0                94           2             7    6     1       0.1646910331E-02       7    6    1         0.9225772164E-01      0.9229612039E-01
          0                95           2             7    6     1       0.1646910122E-02       7    6    1         0.9225685975E-01      0.9229525760E-01
          0                96           2             7    6     1       0.1646909913E-02       7    6    1         0.9225599786E-01      0.9229439417E-01
          0                97           2             7    6     1       0.1646909703E-02       7    6    1         0.9225513599E-01      0.9229351563E-01
          0                98           2             7    6     1       0.1646909493E-02       7    6    1         0.9225427412E-01      0.9229264971E-01
          0                99           2             7    6     1       0.1646909284E-02       7    6    1         0.9225341230E-01      0.9229179162E-01
          0               100           2             7    6     1       0.1646909075E-02       7    6    1         0.9225255047E-01      0.9229092220E-01
                                                   Max.-Head-Change                         Max.-Flux-Residual
  Residual-Control   Outer-Iter.   Inner-Iter.     Column Row Layer    Maximum-Head-Change  Column Row Layer    Maximum-Flux-Residual          L2-NORM 
          0               101           2             7    6     1       0.1646908865E-02       7    6    1         0.9225168864E-01      0.9229005555E-01
          0               102           2             7    6     1       0.1646908656E-02       7    6    1         0.9225082686E-01      0.9228915722E-01
          0               103           2             7    6     1       0.1646908447E-02       7    6    1         0.9224996509E-01      0.9228832654E-01
          0               104           2             7    6     1       0.1646908237E-02       7    6    1         0.9224910332E-01      0.9228743194E-01
          0               105           2             7    6     1       0.1646908028E-02       7    6    1         0.9224824158E-01      0.9228659635E-01
          0               106           2             7    6     1       0.1646907818E-02       7    6    1         0.9224737985E-01      0.9228570097E-01
          0               107           2             7    6     1       0.1646907609E-02       7    6    1         0.9224651814E-01      0.9228484001E-01
          0               108           2             7    6     1       0.1646907399E-02       7    6    1         0.9224565644E-01      0.9228397106E-01
          0               109           2             7    6     1       0.1646907190E-02       7    6    1         0.9224479477E-01      0.9228312274E-01
          0               110           2             7    6     1       0.1646906981E-02       7    6    1         0.9224393310E-01      0.9228222772E-01
                                                   Max.-Head-Change                         Max.-Flux-Residual
  Residual-Control   Outer-Iter.   Inner-Iter.     Column Row Layer    Maximum-Head-Change  Column Row Layer    Maximum-Flux-Residual          L2-NORM 
          0               111           2             7    6     1       0.1646906771E-02       7    6    1         0.9224307145E-01      0.9228136013E-01
          0               112           2             7    6     1       0.1646906561E-02       7    6    1         0.9224220981E-01      0.9228050938E-01
          0               113           2             7    6     1       0.1646906352E-02       7    6    1         0.9224134821E-01      0.9227964257E-01
          0               114           2             7    6     1       0.1646906143E-02       7    6    1         0.9224048661E-01      0.9227876688E-01
          0               115           2             7    6     1       0.1646905934E-02       7    6    1         0.9223962503E-01      0.9227789399E-01
          0               116           2             7    6     1       0.1646905724E-02       7    6    1         0.9223876346E-01      0.9227703803E-01
          0               117           2             7    6     1       0.1646905515E-02       7    6    1         0.9223790191E-01      0.9227616080E-01
          0               118           2             7    6     1       0.1646905305E-02       7    6    1         0.9223704034E-01      0.9227531058E-01
          0               119           2             7    6     1       0.1646905096E-02       7    6    1         0.9223617886E-01      0.9227442357E-01
          0               120           2             7    6     1       0.1646904887E-02       7    6    1         0.9223531736E-01      0.9227355903E-01
                                                   Max.-Head-Change                         Max.-Flux-Residual
  Residual-Control   Outer-Iter.   Inner-Iter.     Column Row Layer    Maximum-Head-Change  Column Row Layer    Maximum-Flux-Residual          L2-NORM 
          0               121           2             7    6     1       0.1646904677E-02       7    6    1         0.9223445586E-01      0.9227270759E-01
          0               122           2             7    6     1       0.1646904468E-02       7    6    1         0.9223359440E-01      0.9227181792E-01
          0               123           2             7    6     1       0.1646904258E-02       7    6    1         0.9223273294E-01      0.9227095745E-01
          0               124           2             7    6     1       0.1646904049E-02       7    6    1         0.9223187148E-01      0.9227010295E-01
          0               125           2             7    6     1       0.1646903839E-02       7    6    1         0.9223101006E-01      0.9226923502E-01
          0               126           2             7    6     1       0.1646903630E-02       7    6    1         0.9223014868E-01      0.9226836893E-01
          0               127           2             7    6     1       0.1646903421E-02       7    6    1         0.9222928728E-01      0.9226747267E-01
          0               128           2             7    6     1       0.1646903211E-02       7    6    1         0.9222842589E-01      0.9226663230E-01
          0               129           2             7    6     1       0.1646903002E-02       7    6    1         0.9222756455E-01      0.9226575563E-01
          0               130           2             7    6     1       0.1646902792E-02       7    6    1         0.9222670320E-01      0.9226489134E-01
                                                   Max.-Head-Change                         Max.-Flux-Residual
  Residual-Control   Outer-Iter.   Inner-Iter.     Column Row Layer    Maximum-Head-Change  Column Row Layer    Maximum-Flux-Residual          L2-NORM 
          0               131           2             7    6     1       0.1646902583E-02       7    6    1         0.9222584190E-01      0.9226403143E-01
          0               132           2             7    6     1       0.1646902374E-02       7    6    1         0.9222498056E-01      0.9226315637E-01
          0               133           2             7    6     1       0.1646902164E-02       7    6    1         0.9222411927E-01      0.9226228965E-01
          0               134           2             7    6     1       0.1646901954E-02       7    6    1         0.9222325799E-01      0.9226142135E-01
          0               135           2             7    6     1       0.1646901745E-02       7    6    1         0.9222239674E-01      0.9226054821E-01
          0               136           2             7    6     1       0.1646901535E-02       7    6    1         0.9222153548E-01      0.9225968880E-01
          0               137           2             7    6     1       0.1646901326E-02       7    6    1         0.9222067427E-01      0.9225882520E-01
          0               138           2             7    6     1       0.1646901117E-02       7    6    1         0.9221981305E-01      0.9225794944E-01
          0               139           2             7    6     1       0.1646900908E-02       7    6    1         0.9221895187E-01      0.9225709496E-01
          0               140           2             7    6     1       0.1646900698E-02       7    6    1         0.9221809068E-01      0.9225623426E-01
                                                   Max.-Head-Change                         Max.-Flux-Residual
  Residual-Control   Outer-Iter.   Inner-Iter.     Column Row Layer    Maximum-Head-Change  Column Row Layer    Maximum-Flux-Residual          L2-NORM 
          0               141           2             7    6     1       0.1646900488E-02       7    6    1         0.9221722950E-01      0.9225534389E-01
          0               142           2             7    6     1       0.1646900279E-02       7    6    1         0.9221636836E-01      0.9225449410E-01
          0               143           2             7    6     1       0.1646900070E-02       7    6    1         0.9221550723E-01      0.9225363725E-01
          0               144           2             7    6     1       0.1646899860E-02       7    6    1         0.9221464610E-01      0.9225274092E-01
          0               145           2             7    6     1       0.1646899651E-02       7    6    1         0.9221378502E-01      0.9225189020E-01
          0               146           2             7    6     1       0.1646899442E-02       7    6    1         0.9221292393E-01      0.9225102519E-01
          0               147           2             7    6     1       0.1646899232E-02       7    6    1         0.9221206287E-01      0.9225014614E-01
          0               148           2             7    6     1       0.1646899023E-02       7    6    1         0.9221120180E-01      0.9224928494E-01
          0               149           2             7    6     1       0.1646898813E-02       7    6    1         0.9221034077E-01      0.9224843722E-01
          0               150           2             7    6     1       0.1646898604E-02       7    6    1         0.9220947976E-01      0.9224755944E-01
                                                   Max.-Head-Change                         Max.-Flux-Residual
  Residual-Control   Outer-Iter.   Inner-Iter.     Column Row Layer    Maximum-Head-Change  Column Row Layer    Maximum-Flux-Residual          L2-NORM 
          0               151           2             7    6     1       0.1669656660E-02       7    6    1         0.9348304483E-01      0.9352057707E-01
          0               152           2             7    6     1       0.2070731110E-02       7    6    1         0.1159413240E+00      0.1159716475E+00
          0               153           2             7    6     1       0.2144210509E-02       7    6    1         0.1200518197E+00      0.1200818209E+00
          0               154           2             7    6     1       0.2157685886E-02       7    6    1         0.1208042325E+00      0.1208343353E+00
          0               155           2             7    6     1       0.2160159054E-02       7    6    1         0.1209413365E+00      0.1209714902E+00
          0               156           2             7    6     1       0.2160613007E-02       7    6    1         0.1209655829E+00      0.1209957331E+00
          0               157           2             7    6     1       0.2160696075E-02       7    6    1         0.1209691111E+00      0.1209992433E+00
          0               158           2             7    6     1       0.2160710970E-02       7    6    1         0.1209688329E+00      0.1209989895E+00
          0               159           2             7    6     1       0.2160713325E-02       7    6    1         0.1209678549E+00      0.1209979952E+00
          0               160           2             7    6     1       0.2160713373E-02       7    6    1         0.1209667483E+00      0.1209968650E+00
                                                   Max.-Head-Change                         Max.-Flux-Residual
  Residual-Control   Outer-Iter.   Inner-Iter.     Column Row Layer    Maximum-Head-Change  Column Row Layer    Maximum-Flux-Residual          L2-NORM 
          0               161           2             7    6     1       0.2160712996E-02       7    6    1         0.1209656179E+00      0.1209957707E+00
          0               162           2             7    6     1       0.2160712542E-02       7    6    1         0.1209644832E+00      0.1209945879E+00
          0               163           2             7    6     1       0.1992842079E-02       7    6    1         0.1115639336E+00      0.1115966193E+00
          0               164           2             7    6     1       0.3650051839E-03       7    6    1         0.2041882210E-01      0.2059444994E-01
          0               165           1             7    6     1       0.6692051744E-04       7    6    1         0.3741166129E-02      0.4547363837E-02
          0               166           1             2   13     1      -0.3881718325E-04       2   13    1        -0.2236257660E-02      0.2663385291E-02
          0               167           1             2   13     1      -0.3890588867E-04       2   13    1        -0.2241155001E-02      0.2580500151E-02
          0               168           1             2   13     1      -0.3870926393E-04       2   13    1        -0.2229904286E-02      0.2567118052E-02
          0               169           1             2   13     1      -0.3881727433E-04       2   13    1        -0.2236097244E-02      0.2572821332E-02
          0               170           1             2   13     1      -0.3880560960E-04       2   13    1        -0.2235369735E-02      0.2572320542E-02
                                                   Max.-Head-Change                         Max.-Flux-Residual
  Residual-Control   Outer-Iter.   Inner-Iter.     Column Row Layer    Maximum-Head-Change  Column Row Layer    Maximum-Flux-Residual          L2-NORM 
          0               171           1             2   13     1      -0.3879167105E-04       2   13    1        -0.2234493426E-02      0.2571734980E-02
          0               172           1             2   13     1      -0.3879218866E-04       2   13    1        -0.2234486283E-02      0.2571816613E-02
          0               173           1             2   13     1      -0.3880168638E-04       2   13    1        -0.2235163659E-02      0.2572648639E-02
          0               174           1             2   13     1      -0.3877074730E-04       2   13    1        -0.2232986830E-02      0.2570655408E-02
          0               175           1             2   13     1      -0.3879003107E-04       2   13    1        -0.2234196905E-02      0.2571788334E-02
          0               176           1             2   13     1      -0.3876561923E-04       2   13    1        -0.2232722435E-02      0.2570704841E-02
          0               177           1             2   13     1      -0.3877036662E-04       2   13    1        -0.2232977063E-02      0.2570967910E-02
          0               178           1             2   13     1      -0.3876392943E-04       2   13    1        -0.2232538897E-02      0.2570566870E-02
          0               179           1             2   13     1      -0.3875392667E-04       2   13    1        -0.2231927435E-02      0.2568680704E-02
          0               180           1             2   13     1      -0.3875545727E-04       2   13    1        -0.2231902648E-02      0.2571944502E-02
                                                   Max.-Head-Change                         Max.-Flux-Residual
  Residual-Control   Outer-Iter.   Inner-Iter.     Column Row Layer    Maximum-Head-Change  Column Row Layer    Maximum-Flux-Residual          L2-NORM 
          0               181           1             2   13     1      -0.3876302230E-04       2   13    1        -0.2232503716E-02      0.2571066302E-02
          0               182           1             2   13     1      -0.3872135177E-04       2   13    1        -0.2229872620E-02      0.2568802155E-02
          0               183           1             2   13     1      -0.3875994834E-04       2   13    1        -0.2232042681E-02      0.2570731527E-02
          0               184           1             2   13     1      -0.3873133284E-04       2   13    1        -0.2230167396E-02      0.2569735040E-02
          0               185           1             2   13     1      -0.3873858413E-04       2   13    1        -0.2230699696E-02      0.2569428273E-02
          0               186           1             2   13     1      -0.3870905449E-04       2   13    1        -0.2228941596E-02      0.2568479925E-02
          0               187           1             2   13     1      -0.3873224052E-04       2   13    1        -0.2230389402E-02      0.2569972861E-02
          0               188           1             2   13     1      -0.3871320467E-04       2   13    1        -0.2228923307E-02      0.2568665845E-02
          0               189           1             2   13     1      -0.3871166439E-04       2   13    1        -0.2228926517E-02      0.2568849305E-02
          0               190           1             2   13     1      -0.3870098304E-04       2   13    1        -0.2228263896E-02      0.2568366468E-02
                                                   Max.-Head-Change                         Max.-Flux-Residual
  Residual-Control   Outer-Iter.   Inner-Iter.     Column Row Layer    Maximum-Head-Change  Column Row Layer    Maximum-Flux-Residual          L2-NORM 
          0               191           1             2   13     1      -0.3870040329E-04       2   13    1        -0.2228177424E-02      0.2568448744E-02
          0               192           1             2   13     1      -0.3869789464E-04       2   13    1        -0.2227978659E-02      0.2568476375E-02
          0               193           1             2   13     1      -0.3868555639E-04       2   13    1        -0.2227215654E-02      0.2567757640E-02
          0               194           1             2   13     1      -0.3868755157E-04       2   13    1        -0.2227433790E-02      0.2568432312E-02
          0               195           1             2   13     1      -0.3868028586E-04       2   13    1        -0.2226809596E-02      0.2567899732E-02
          0               196           1             2   13     1      -0.3867764208E-04       2   13    1        -0.2226439617E-02      0.2567635563E-02
          0               197           1             2   13     1      -0.3866469867E-04       2   13    1        -0.2225950983E-02      0.2567262706E-02
          0               198           1             2   13     1      -0.3867558042E-04       2   13    1        -0.2226220692E-02      0.2567826535E-02
          0               199           1             2   13     1      -0.3865534940E-04       2   13    1        -0.2225146263E-02      0.2566824669E-02
          0               200           1             2   13     1      -0.3864379120E-04       2   13    1        -0.2224428943E-02      0.2566622367E-02

    ------------------------------------------------
       NWT REQUIRED          200 OUTER ITERATIONS 
       AND A TOTAL OF        364 INNER ITERATIONS.
    ------------------------------------------------

 NO OUTPUT CONTROL FOR STRESS PERIOD   19   TIME STEP   25



 STREAM LISTING     PERIOD     19   STEP       25

 LAYER ROW COL. STREAM  RCH.  FLOW INTO     FLOW TO   FLOW OUT OF   OVRLND.     DIRECT     STREAM       STREAM     STREAM     STREAM   STREAMBED  STREAMBED
                SEG.NO.  NO.  STRM. RCH.    AQUIFER    STRM. RCH.    RUNOFF     PRECIP       ET          HEAD       DEPTH      WIDTH   CONDCTNC.   GRADIENT

   1    1    1     1     1    2.8000E+01  2.5860E-10   2.8000E+01  0.000E+00  0.000E+00  0.000E+00  1.09427E+03  1.221E+00  1.361E+01  6.126E-11  1.407E+00
   1    2    2     1     2    2.8000E+01  4.0178E-10   2.8000E+01  0.000E+00  0.000E+00  0.000E+00  1.08928E+03  1.220E+00  1.360E+01  9.520E-11  1.407E+00
   1    3    3     1     3    2.8000E+01  3.4455E-10   2.8000E+01  0.000E+00  0.000E+00  0.000E+00  1.08364E+03  1.221E+00  1.361E+01  8.163E-11  1.407E+00
   1    3    4     1     4    2.8000E+01  3.1878E-10   2.8000E+01  0.000E+00  0.000E+00  0.000E+00  1.07863E+03  1.221E+00  1.361E+01  7.552E-11  1.407E+00
   1    4    5     2     1    2.6000E+01  3.3006E-01   2.5670E+01  0.000E+00  0.000E+00  0.000E+00  1.07317E+03  1.232E+00  1.200E+01  7.800E-02  1.411E+00
   1    5    6     2     2    2.5670E+01  2.5339E-01   2.5417E+01  0.000E+00  0.000E+00  0.000E+00  1.06773E+03  1.223E+00  1.200E+01  6.000E-02  1.408E+00
   1    6    6     2     3    2.5417E+01  2.5296E-01   2.5164E+01  0.000E+00  0.000E+00  0.000E+00  1.06301E+03  1.216E+00  1.200E+01  6.000E-02  1.405E+00
   1    7    6     2     4    2.5164E+01  2.5252E-01   2.4911E+01  0.000E+00  0.000E+00  0.000E+00  1.05828E+03  1.209E+00  1.200E+01  6.000E-02  1.403E+00
   1    8    6     2     5    2.4911E+01  2.5208E-01   2.4659E+01  0.000E+00  0.000E+00  0.000E+00  1.05356E+03  1.201E+00  1.200E+01  6.000E-02  1.400E+00
   1    3    5     3     1    2.0000E+00  2.8252E-01   1.7175E+00  0.000E+00  0.000E+00  0.000E+00  1.07555E+03  1.909E+00  9.636E+00  7.227E-02  1.955E+00
   1    3    6     3     2    1.7175E+00  2.4905E-01   1.4684E+00  0.000E+00  0.000E+00  0.000E+00  1.07264E+03  1.727E+00  8.909E+00  6.682E-02  1.864E+00
   1    3    7     3     3    1.4684E+00  1.9718E-01   1.2712E+00  0.000E+00  0.000E+00  0.000E+00  1.06987E+03  1.555E+00  8.218E+00  5.547E-02  1.777E+00
   1    4    8     3     4    1.2712E+00  2.2567E-01   1.0456E+00  0.000E+00  0.000E+00  0.000E+00  1.06682E+03  1.364E+00  7.455E+00  6.709E-02  1.682E+00
   1    5    8     3     5    1.0456E+00  1.5790E-01   8.8768E-01  0.000E+00  0.000E+00  0.000E+00  1.06362E+03  1.164E+00  6.655E+00  4.991E-02  1.582E+00
   1    6    8     3     6    8.8768E-01  5.5980E-02   8.3170E-01  0.000E+00  0.000E+00  0.000E+00  1.06158E+03  1.036E+00  6.145E+00  1.844E-02  1.518E+00
   1    5   10     4     1    1.0000E+01  9.0919E-02   9.9091E+00  0.000E+00  0.000E+00  0.000E+00  1.07836E+03  6.368E-01  1.000E+01  2.500E-02  1.212E+00
   1    5    9     4     2    9.9091E+00  1.8158E-01   9.7275E+00  0.000E+00  0.000E+00  0.000E+00  1.07154E+03  6.315E-01  1.000E+01  5.000E-02  1.211E+00
   1    6    8     4     3    9.7275E+00  1.2689E-01   9.6006E+00  0.000E+00  0.000E+00  0.000E+00  1.06381E+03  6.256E-01  1.000E+01  3.500E-02  1.209E+00
   1    6    8     5     1    1.0432E+01  2.2686E-09   1.0432E+01  0.000E+00  0.000E+00  0.000E+00  1.05868E+03  6.790E-01  1.542E+01  6.166E-10  1.226E+00
   1    7    7     5     2    1.0432E+01  2.8306E-09   1.0432E+01  0.000E+00  0.000E+00  0.000E+00  1.05418E+03  6.784E-01  1.539E+01  7.695E-10  1.226E+00
   1    8    7     5     3    1.0432E+01  1.9868E-09   1.0432E+01  0.000E+00  0.000E+00  0.000E+00  1.04993E+03  6.794E-01  1.543E+01  5.400E-10  1.226E+00
   1    8    6     5     4    1.0432E+01  1.4217E-09   1.0432E+01  0.000E+00  0.000E+00  0.000E+00  1.04693E+03  6.800E-01  1.545E+01  3.863E-10  1.227E+00
   1    9    6     6     1    1.5327E+01  2.3437E-01   1.5092E+01  0.000E+00  0.000E+00  0.000E+00  1.04363E+03  9.062E-01  1.200E+01  6.000E-02  1.302E+00
   1   10    7     6     2    1.5092E+01  2.3387E-01   1.4858E+01  0.000E+00  0.000E+00  0.000E+00  1.03908E+03  8.978E-01  1.200E+01  6.000E-02  1.299E+00
   1   11    7     6     3    1.4858E+01  2.3336E-01   1.4625E+01  0.000E+00  0.000E+00  0.000E+00  1.03453E+03  8.894E-01  1.200E+01  6.000E-02  1.296E+00
   1   12    7     6     4    1.4625E+01  2.3286E-01   1.4392E+01  0.000E+00  0.000E+00  0.000E+00  1.02997E+03  8.809E-01  1.200E+01  6.000E-02  1.294E+00
   1   13    7     6     5    1.4392E+01  9.3000E-02   1.4299E+01  0.000E+00  0.000E+00  0.000E+00  1.02678E+03  8.750E-01  1.200E+01  2.400E-02  1.292E+00
   1   14    9     7     1    1.5000E+02  2.9539E-08   1.5000E+02  0.000E+00  0.000E+00  0.000E+00  1.03986E+03  2.283E+00  5.528E+01  5.591E-09  1.761E+00
   1   13    8     7     2    1.5000E+02  3.2486E-14   1.5000E+02  0.000E+00  0.000E+00  0.000E+00  1.03478E+03  2.283E+00  5.527E+01  6.150E-15  1.761E+00
   1   13    7     7     3    1.5000E+02  2.9539E-08   1.5000E+02  0.000E+00  0.000E+00  0.000E+00  1.02970E+03  2.283E+00  5.528E+01  5.591E-09  1.761E+00
   1   13    6     8     1    1.6430E+02  2.5363E-10   1.6430E+02  0.000E+00  0.000E+00  0.000E+00  1.02478E+03  2.906E+00  4.214E+01  4.294E-11  1.969E+00
   1   13    5     8     2    1.6430E+02  2.5363E-13   1.6430E+02  0.000E+00  0.000E+00  0.000E+00  1.01853E+03  2.906E+00  4.214E+01  4.294E-14  1.969E+00
   1   13    4     8     3    1.6430E+02  1.6276E-16   1.6430E+02  0.000E+00  0.000E+00  0.000E+00  1.01228E+03  2.909E+00  4.218E+01  4.299E-17  1.262E+00
   1   13    3     8     4    1.6430E+02  1.9891E-06   1.6430E+02  0.000E+00  0.000E+00  0.000E+00  1.00604E+03  2.914E+00  4.225E+01  4.306E-06  1.540E-01
   1   13    2     8     5    1.6430E+02 -1.6444E+00   1.6594E+02  0.000E+00  0.000E+00  0.000E+00  9.99795E+02  2.920E+00  4.234E+01  4.315E+00 -1.270E-01
   1   13    1     8     6    1.6594E+02 -1.6902E+00   1.6763E+02  0.000E+00  0.000E+00  0.000E+00  9.94806E+02  2.931E+00  4.250E+01  2.599E+00 -2.168E-01
   1    6    8     9     1    1.9765E+01  0.0000E+00   1.9765E+01  0.000E+00  0.000E+00  0.000E+00  1.07931E+03  8.111E-01  4.000E+00  0.000E+00  1.270E+00





UNSATURATED ZONE PACKAGE VOLUMETRIC BUDGET FOR  TIME STEP    25 STRESS PERIOD   19
  ------------------------------------------------------------------------------



     CUMULATIVE VOLUMES      L**3       RATES FOR THIS TIME STEP      L**3/T
     ------------------                 ------------------------

           IN:                                      IN:
           ---                                      ---
        INFILTRATION =    84432334.2822          INFILTRATION =          20.6122

          OUT:                                     OUT:
          ----                                     ----
              UZF ET =   582512230.2905                UZF ET =           5.1654
        UZF RECHARGE =  1246445868.4555          UZF RECHARGE =          24.3609

            IN - OUT = -1744525764.4638              IN - OUT =          -8.9141

          STORAGE:                                 STORAGE:
          --------                                 --------
      STORAGE CHANGE = -1744514355.8979        STORAGE CHANGE =          -8.9141

 PERCENT DISCREPANCY IS DIFFERENCE BETWEEN IN-OUT MINUS CHANGE IN STORAGE
 DIVIDED BY THE AVERAGE OF IN AND OUT TIMES 100

 PERCENT DISCREPANCY =          -0.00     PERCENT DISCREPANCY =           0.00







         ****FAILED TO MEET SOLVER CONVERGENCE CRITERIA IN TIME STEP   25 OF STRESS PERIOD   19****
1
  VOLUMETRIC BUDGET FOR ENTIRE MODEL AT END OF TIME STEP   25, STRESS PERIOD  19
  ------------------------------------------------------------------------------

     CUMULATIVE VOLUMES      L**3       RATES FOR THIS TIME STEP      L**3/T
     ------------------                 ------------------------

           IN:                                      IN:
           ---                                      ---
             STORAGE =    24379744.0000               STORAGE =           1.3711
       CONSTANT HEAD =           0.0000         CONSTANT HEAD =           0.0000
               WELLS =           0.0000                 WELLS =           0.0000
     HEAD DEP BOUNDS =    51017200.0000       HEAD DEP BOUNDS =           0.9882
      STREAM LEAKAGE =   197645168.0000        STREAM LEAKAGE =           3.9362
        UZF RECHARGE =  1246446080.0000          UZF RECHARGE =          24.3609
               GW ET =           0.0000                 GW ET =           0.0000
     SURFACE LEAKAGE =           0.0000       SURFACE LEAKAGE =           0.0000

            TOTAL IN =  1519488256.0000              TOTAL IN =          30.6563

          OUT:                                     OUT:
          ----                                     ----
             STORAGE =  1326669824.0000               STORAGE =          24.8400
       CONSTANT HEAD =           0.0000         CONSTANT HEAD =           0.0000
               WELLS =     4465322.5000                 WELLS =           0.0000
     HEAD DEP BOUNDS =    14132790.0000       HEAD DEP BOUNDS =           0.2833
      STREAM LEAKAGE =   128678120.0000        STREAM LEAKAGE =           3.3345
        UZF RECHARGE =           0.0000          UZF RECHARGE =           0.0000
               GW ET =    45387044.0000                 GW ET =           2.1983
     SURFACE LEAKAGE =           0.0000       SURFACE LEAKAGE =           0.0000

           TOTAL OUT =  1519332992.0000             TOTAL OUT =          30.6562

            IN - OUT =      155264.0000              IN - OUT =       8.0109E-05

 PERCENT DISCREPANCY =           0.01     PERCENT DISCREPANCY =           0.00






         TIME SUMMARY AT END OF TIME STEP   25 IN STRESS PERIOD   19
                    SECONDS     MINUTES      HOURS       DAYS        YEARS
                    -----------------------------------------------------------
   TIME STEP LENGTH  87600.      1460.0      24.333      1.0139     2.77588E-03
 STRESS PERIOD TIME 2.19000E+06  36500.      608.33      25.347     6.93969E-02
         TOTAL TIME 4.94940E+07 8.24900E+05  13748.      572.85      1.5684    
1
 
 SOLVING FOR HEAD 
                                                   Max.-Head-Change                         Max.-Flux-Residual
  Residual-Control   Outer-Iter.   Inner-Iter.     Column Row Layer    Maximum-Head-Change  Column Row Layer    Maximum-Flux-Residual          L2-NORM 
          0                 1           2             7    6     1       0.1391504502E-01       7    6    1         0.7466916252E+00      0.1857727929E+01
          0                 2           2             7    6     1      -0.2850692142E+00       7    6    1        -0.1569871448E+02      0.1570382413E+02
          0                 3           2             7    6     1       0.2232280891E-01       7    6    1         0.1242364561E+01      0.1253113992E+01
          0                 4           2             7    6     1       0.1398667072E-02       7    6    1         0.7786989986E-01      0.9922262694E-01
          0                 5           2             7    6     1       0.3080052742E-02       7    6    1         0.1711565995E+00      0.1733615633E+00
          0                 6           2             7    6     1       0.2946227468E-02       7    6    1         0.1636817932E+00      0.1642017469E+00
          0                 7           2             7    6     1       0.2957116987E-02       7    6    1         0.1642799917E+00      0.1644413786E+00
          0                 8           2             7    6     1       0.2956269700E-02       7    6    1         0.1642304151E+00      0.1643202485E+00
          0                 9           2             7    6     1       0.2956341472E-02       7    6    1         0.1642327459E+00      0.1643081828E+00
          0                10           2             7    6     1       0.2956336074E-02       7    6    1         0.1642309168E+00      0.1643034558E+00
                                                   Max.-Head-Change                         Max.-Flux-Residual
  Residual-Control   Outer-Iter.   Inner-Iter.     Column Row Layer    Maximum-Head-Change  Column Row Layer    Maximum-Flux-Residual          L2-NORM 
          0                11           2             7    6     1       0.2956336364E-02       7    6    1         0.1642294211E+00      0.1643013465E+00
          0                12           2             7    6     1       0.2956336165E-02       7    6    1         0.1642278987E+00      0.1642997062E+00
          0                13           2             7    6     1       0.2956336024E-02       7    6    1         0.1642263785E+00      0.1642981298E+00
          0                14           2             7    6     1       0.2956335893E-02       7    6    1         0.1642248581E+00      0.1642966064E+00
          0                15           2             7    6     1       0.2956335768E-02       7    6    1         0.1642233378E+00      0.1642950422E+00
          0                16           2             7    6     1       0.2956335647E-02       7    6    1         0.1642218175E+00      0.1642934941E+00
          0                17           2             7    6     1       0.2956335526E-02       7    6    1         0.1642202972E+00      0.1642919580E+00
          0                18           2             7    6     1       0.2956335407E-02       7    6    1         0.1642187770E+00      0.1642904537E+00
          0                19           2             7    6     1       0.2956335287E-02       7    6    1         0.1642172568E+00      0.1642888669E+00
          0                20           2             7    6     1       0.2956335168E-02       7    6    1         0.1642157366E+00      0.1642873430E+00
                                                   Max.-Head-Change                         Max.-Flux-Residual
  Residual-Control   Outer-Iter.   Inner-Iter.     Column Row Layer    Maximum-Head-Change  Column Row Layer    Maximum-Flux-Residual          L2-NORM 
          0                21           2             7    6     1       0.2956335048E-02       7    6    1         0.1642142165E+00      0.1642858142E+00
          0                22           2             7    6     1       0.2956334930E-02       7    6    1         0.1642126964E+00      0.1642842793E+00
          0                23           2             7    6     1       0.2956334810E-02       7    6    1         0.1642111763E+00      0.1642826778E+00
          0                24           2             7    6     1       0.2956334691E-02       7    6    1         0.1642096562E+00      0.1642812250E+00
          0                25           2             7    6     1       0.2956334572E-02       7    6    1         0.1642081362E+00      0.1642796374E+00
          0                26           2             7    6     1       0.2956334453E-02       7    6    1         0.1642066162E+00      0.1642781190E+00
          0                27           2             7    6     1       0.2956334333E-02       7    6    1         0.1642050962E+00      0.1642765223E+00
          0                28           2             7    6     1       0.2956334214E-02       7    6    1         0.1642035762E+00      0.1642750259E+00
          0                29           2             7    6     1       0.2956334095E-02       7    6    1         0.1642020563E+00      0.1642734880E+00
          0                30           2             7    6     1       0.2956333976E-02       7    6    1         0.1642005364E+00      0.1642719407E+00
                                                   Max.-Head-Change                         Max.-Flux-Residual
  Residual-Control   Outer-Iter.   Inner-Iter.     Column Row Layer    Maximum-Head-Change  Column Row Layer    Maximum-Flux-Residual          L2-NORM 
          0                31           2             7    6     1       0.2956333857E-02       7    6    1         0.1641990166E+00      0.1642704131E+00
          0                32           2             7    6     1       0.2956333737E-02       7    6    1         0.1641974967E+00      0.1642688490E+00
          0                33           2             7    6     1       0.2956333618E-02       7    6    1         0.1641959769E+00      0.1642673452E+00
          0                34           2             7    6     1       0.2956333499E-02       7    6    1         0.1641944571E+00      0.1642657627E+00
          0                35           2             7    6     1       0.2956333379E-02       7    6    1         0.1641929374E+00      0.1642642446E+00
          0                36           2             7    6     1       0.2956333260E-02       7    6    1         0.1641914177E+00      0.1642627002E+00
          0                37           2             7    6     1       0.2956333141E-02       7    6    1         0.1641898980E+00      0.1642611673E+00
          0                38           2             7    6     1       0.2956333022E-02       7    6    1         0.1641883783E+00      0.1642596066E+00
          0                39           2             7    6     1       0.2956332903E-02       7    6    1         0.1641868586E+00      0.1642581036E+00
          0                40           2             7    6     1       0.2956332783E-02       7    6    1         0.1641853390E+00      0.1642565231E+00
                                                   Max.-Head-Change                         Max.-Flux-Residual
  Residual-Control   Outer-Iter.   Inner-Iter.     Column Row Layer    Maximum-Head-Change  Column Row Layer    Maximum-Flux-Residual          L2-NORM 
          0                41           2             7    6     1       0.2956332664E-02       7    6    1         0.1641838194E+00      0.1642550191E+00
          0                42           2             7    6     1       0.2956332503E-02       7    6    1         0.1641822998E+00      0.1642534604E+00
          0                43           2             7    6     1       0.2956331528E-02       7    6    1         0.1641807634E+00      0.1642518977E+00
          0                44           2             7    6     1       0.2956330878E-02       7    6    1         0.1641792453E+00      0.1642503798E+00
          0                45           2             7    6     1       0.2956330201E-02       7    6    1         0.1641777257E+00      0.1642488204E+00
          0                46           2             7    6     1       0.2956329527E-02       7    6    1         0.1641762063E+00      0.1642472941E+00
          0                47           2             7    6     1       0.2956311682E-02       7    6    1         0.1641737332E+00      0.1642448120E+00
          0                48           2             7    6     1       0.2956312389E-02       7    6    1         0.1641722906E+00      0.1642432765E+00
          0                49           2             7    6     1       0.2956311603E-02       7    6    1         0.1641707651E+00      0.1642418311E+00
          0                50           2             7    6     1       0.2956310937E-02       7    6    1         0.1641692462E+00      0.1642402334E+00
                                                   Max.-Head-Change                         Max.-Flux-Residual
  Residual-Control   Outer-Iter.   Inner-Iter.     Column Row Layer    Maximum-Head-Change  Column Row Layer    Maximum-Flux-Residual          L2-NORM 
          0                51           2             7    6     1       0.2956310262E-02       7    6    1         0.1641677269E+00      0.1642387351E+00
          0                52           2             7    6     1       0.2956309587E-02       7    6    1         0.1641662076E+00      0.1642371637E+00
          0                53           2             7    6     1       0.2956308913E-02       7    6    1         0.1641646884E+00      0.1642356356E+00
          0                54           2             7    6     1       0.2956308239E-02       7    6    1         0.1641631692E+00      0.1642341038E+00
          0                55           2             7    6     1       0.2956307564E-02       7    6    1         0.1641616500E+00      0.1642325635E+00
          0                56           2             7    6     1       0.2956306890E-02       7    6    1         0.1641601309E+00      0.1642309955E+00
          0                57           2             7    6     1       0.2956306215E-02       7    6    1         0.1641586117E+00      0.1642294891E+00
          0                58           2             7    6     1       0.2956305541E-02       7    6    1         0.1641570926E+00      0.1642279413E+00
          0                59           2             7    6     1       0.2956304867E-02       7    6    1         0.1641555735E+00      0.1642263966E+00
          0                60           2             7    6     1       0.2956304192E-02       7    6    1         0.1641540545E+00      0.1642248372E+00
                                                   Max.-Head-Change                         Max.-Flux-Residual
  Residual-Control   Outer-Iter.   Inner-Iter.     Column Row Layer    Maximum-Head-Change  Column Row Layer    Maximum-Flux-Residual          L2-NORM 
          0                61           2             7    6     1       0.2956303518E-02       7    6    1         0.1641525355E+00      0.1642233477E+00
          0                62           2             7    6     1       0.2956302844E-02       7    6    1         0.1641510165E+00      0.1642217751E+00
          0                63           2             7    6     1       0.2956302169E-02       7    6    1         0.1641494975E+00      0.1642202624E+00
          0                64           2             7    6     1       0.2956301494E-02       7    6    1         0.1641479786E+00      0.1642186917E+00
          0                65           2             7    6     1       0.2956300820E-02       7    6    1         0.1641464597E+00      0.1642171873E+00
          0                66           2             7    6     1       0.2956300146E-02       7    6    1         0.1641449409E+00      0.1642156343E+00
          0                67           2             7    6     1       0.2956299471E-02       7    6    1         0.1641434220E+00      0.1642140734E+00
          0                68           2             7    6     1       0.2956298797E-02       7    6    1         0.1641419032E+00      0.1642125735E+00
          0                69           2             7    6     1       0.2956298122E-02       7    6    1         0.1641403844E+00      0.1642110047E+00
          0                70           2             7    6     1       0.2956297448E-02       7    6    1         0.1641388656E+00      0.1642094929E+00
                                                   Max.-Head-Change                         Max.-Flux-Residual
  Residual-Control   Outer-Iter.   Inner-Iter.     Column Row Layer    Maximum-Head-Change  Column Row Layer    Maximum-Flux-Residual          L2-NORM 
          0                71           2             7    6     1       0.2956296774E-02       7    6    1         0.1641373469E+00      0.1642079326E+00
          0                72           2             7    6     1       0.2956296099E-02       7    6    1         0.1641358282E+00      0.1642064107E+00
          0                73           2             7    6     1       0.2956295425E-02       7    6    1         0.1641343095E+00      0.1642048651E+00
          0                74           2             7    6     1       0.2956294751E-02       7    6    1         0.1641327909E+00      0.1642033364E+00
          0                75           2             7    6     1       0.2956294076E-02       7    6    1         0.1641312722E+00      0.1642017857E+00
          0                76           2             7    6     1       0.2956293402E-02       7    6    1         0.1641297536E+00      0.1642002461E+00
          0                77           2             7    6     1       0.2956292727E-02       7    6    1         0.1641282351E+00      0.1641988368E+00
          0                78           2             7    6     1       0.2956292053E-02       7    6    1         0.1641267165E+00      0.1641970640E+00
          0                79           2             7    6     1       0.2956291379E-02       7    6    1         0.1641251981E+00      0.1641956481E+00
          0                80           2             7    6     1       0.2956290704E-02       7    6    1         0.1641236796E+00      0.1641941190E+00
                                                   Max.-Head-Change                         Max.-Flux-Residual
  Residual-Control   Outer-Iter.   Inner-Iter.     Column Row Layer    Maximum-Head-Change  Column Row Layer    Maximum-Flux-Residual          L2-NORM 
          0                81           2             7    6     1       0.2956290029E-02       7    6    1         0.1641221611E+00      0.1641925777E+00
          0                82           2             7    6     1       0.2956289355E-02       7    6    1         0.1641206427E+00      0.1641910337E+00
          0                83           2             7    6     1       0.2956288681E-02       7    6    1         0.1641191243E+00      0.1641894967E+00
          0                84           2             7    6     1       0.2956288007E-02       7    6    1         0.1641176059E+00      0.1641879632E+00
          0                85           2             7    6     1       0.2956287332E-02       7    6    1         0.1641160876E+00      0.1641864378E+00
          0                86           2             7    6     1       0.3624344085E-02       7    6    1         0.2012077175E+00      0.2012650731E+00
          0                87           2             7    6     1       0.3833769148E-02       7    6    1         0.2128283309E+00      0.2128840183E+00
          0                88           2             7    6     1       0.3870698479E-02       7    6    1         0.2148741138E+00      0.2149300653E+00
          0                89           2             7    6     1       0.3877217311E-02       7    6    1         0.2152333383E+00      0.2152894185E+00
          0                90           2             7    6     1       0.3878368389E-02       7    6    1         0.2152951265E+00      0.2153512351E+00
                                                   Max.-Head-Change                         Max.-Flux-Residual
  Residual-Control   Outer-Iter.   Inner-Iter.     Column Row Layer    Maximum-Head-Change  Column Row Layer    Maximum-Flux-Residual          L2-NORM 
          0                91           2             7    6     1       0.3878570859E-02       7    6    1         0.2153043964E+00      0.2153605032E+00
          0                92           2             7    6     1       0.1303452120E-02       7    6    1         0.7232952833E-01      0.7249636389E-01
          0                93           2             7    6     1       0.2298138342E-03       7    6    1         0.1274151426E-01      0.1357955480E-01
          0                94           1             2   13     1      -0.6992230321E-04       2   13    1        -0.4030735110E-02      0.5157244752E-02
          0                95           1             2   13     1      -0.6991796260E-04       2   13    1        -0.4030376564E-02      0.4654340435E-02
          0                96           1             2   13     1      -0.6990426007E-04       2   13    1        -0.4029588660E-02      0.4637409381E-02
          0                97           1             2   13     1      -0.6987392571E-04       2   13    1        -0.4027337352E-02      0.4634934858E-02
          0                98           1             2   13     1      -0.6986890853E-04       2   13    1        -0.4027108379E-02      0.4635171886E-02
          0                99           1             2   13     1      -0.6985479514E-04       2   13    1        -0.4026153511E-02      0.4634723855E-02
          0               100           1             2   13     1      -0.6983468464E-04       2   13    1        -0.4024830359E-02      0.4634019117E-02
                                                   Max.-Head-Change                         Max.-Flux-Residual
  Residual-Control   Outer-Iter.   Inner-Iter.     Column Row Layer    Maximum-Head-Change  Column Row Layer    Maximum-Flux-Residual          L2-NORM 
          0               101           1             2   13     1      -0.6980635586E-04       2   13    1        -0.4023060139E-02      0.4632202741E-02
          0               102           1             2   13     1      -0.6982367545E-04       2   13    1        -0.4023906123E-02      0.4634277851E-02
          0               103           1             2   13     1      -0.6978751207E-04       2   13    1        -0.4021681214E-02      0.4632137753E-02
          0               104           1             2   13     1      -0.6978295281E-04       2   13    1        -0.4021270813E-02      0.4632521763E-02
          0               105           1             2   13     1      -0.6975286166E-04       2   13    1        -0.4019556013E-02      0.4631164810E-02
          0               106           1             2   13     1      -0.6974980025E-04       2   13    1        -0.4019061347E-02      0.4631299092E-02
          0               107           1             2   13     1      -0.6972937606E-04       2   13    1        -0.4017591646E-02      0.4630193971E-02
          0               108           1             2   13     1      -0.6971228621E-04       2   13    1        -0.4016788824E-02      0.4630352386E-02
          0               109           1             2   13     1      -0.6969211669E-04       2   13    1        -0.4015141395E-02      0.4629127512E-02
          0               110           1             2   13     1      -0.6968018453E-04       2   13    1        -0.4014474234E-02      0.4629111774E-02
                                                   Max.-Head-Change                         Max.-Flux-Residual
  Residual-Control   Outer-Iter.   Inner-Iter.     Column Row Layer    Maximum-Head-Change  Column Row Layer    Maximum-Flux-Residual          L2-NORM 
          0               111           1             2   13     1      -0.6966388051E-04       2   13    1        -0.4013569510E-02      0.4629004635E-02
          0               112           1             2   13     1      -0.6963961950E-04       2   13    1        -0.4011683874E-02      0.4627470249E-02
          0               113           1             2   13     1      -0.5028251590E-04       2   13    1        -0.2896783958E-02      0.3354723662E-02
          0               114           1             2   13     1       0.4008937162E-05       2   13    1         0.2332680779E-03      0.2897636887E-03

    ------------------------------------------------
       NWT REQUIRED          114 OUTER ITERATIONS 
       AND A TOTAL OF        207 INNER ITERATIONS.
    ------------------------------------------------

 NO OUTPUT CONTROL FOR STRESS PERIOD   19   TIME STEP   26
 
 SOLVING FOR HEAD 
                                                   Max.-Head-Change                         Max.-Flux-Residual
  Residual-Control   Outer-Iter.   Inner-Iter.     Column Row Layer    Maximum-Head-Change  Column Row Layer    Maximum-Flux-Residual          L2-NORM 
          0                 1           2             7    6     1       0.1336029763E-01       7    6    1         0.7161599927E+00      0.1842447649E+01
          0                 2           2             7    6     1      -0.2853046148E+00       7    6    1        -0.1571173968E+02      0.1571684746E+02
          0                 3           2             7    6     1       0.2233944241E-01       7    6    1         0.1243284991E+01      0.1253999297E+01
          0                 4           2             7    6     1       0.1250459229E-02       7    6    1         0.6963372851E-01      0.9285775475E-01
          0                 5           2             7    6     1       0.2945005158E-02       7    6    1         0.1636538634E+00      0.1659494886E+00
          0                 6           2             7    6     1       0.2810135418E-02       7    6    1         0.1561213681E+00      0.1566594726E+00
          0                 7           2             7    6     1       0.2821089978E-02       7    6    1         0.1567233105E+00      0.1568859751E+00
          0                 8           2             7    6     1       0.2820237216E-02       7    6    1         0.1566735095E+00      0.1567612843E+00
          0                 9           2             7    6     1       0.2820309389E-02       7    6    1         0.1566759339E+00      0.1567486705E+00
          0                10           2             7    6     1       0.2820303962E-02       7    6    1         0.1566741728E+00      0.1567438498E+00
                                                   Max.-Head-Change                         Max.-Flux-Residual
  Residual-Control   Outer-Iter.   Inner-Iter.     Column Row Layer    Maximum-Head-Change  Column Row Layer    Maximum-Flux-Residual          L2-NORM 
          0                11           2             7    6     1       0.2820304264E-02       7    6    1         0.1566727473E+00      0.1567417940E+00
          0                12           2             7    6     1       0.2820304075E-02       7    6    1         0.1566712948E+00      0.1567401991E+00
          0                13           2             7    6     1       0.2820303944E-02       7    6    1         0.1566698445E+00      0.1567387176E+00
          0                14           2             7    6     1       0.2820303824E-02       7    6    1         0.1566683941E+00      0.1567372517E+00
          0                15           2             7    6     1       0.2820303710E-02       7    6    1         0.1566669438E+00      0.1567357744E+00
          0                16           2             7    6     1       0.2820303599E-02       7    6    1         0.1566654934E+00      0.1567342980E+00
          0                17           2             7    6     1       0.2820303489E-02       7    6    1         0.1566640431E+00      0.1567328139E+00
          0                18           2             7    6     1       0.2820303380E-02       7    6    1         0.1566625929E+00      0.1567313948E+00
          0                19           2             7    6     1       0.2820303272E-02       7    6    1         0.1566611426E+00      0.1567298795E+00
          0                20           2             7    6     1       0.2820303163E-02       7    6    1         0.1566596924E+00      0.1567284364E+00
                                                   Max.-Head-Change                         Max.-Flux-Residual
  Residual-Control   Outer-Iter.   Inner-Iter.     Column Row Layer    Maximum-Head-Change  Column Row Layer    Maximum-Flux-Residual          L2-NORM 
          0                21           2             7    6     1       0.2820303054E-02       7    6    1         0.1566582422E+00      0.1567269467E+00
          0                22           2             7    6     1       0.2820302946E-02       7    6    1         0.1566567920E+00      0.1567255002E+00
          0                23           2             7    6     1       0.2820302837E-02       7    6    1         0.1566553418E+00      0.1567240191E+00
          0                24           2             7    6     1       0.2820302729E-02       7    6    1         0.1566538917E+00      0.1567225523E+00
          0                25           2             7    6     1       0.2820302621E-02       7    6    1         0.1566524416E+00      0.1567210917E+00
          0                26           2             7    6     1       0.2820302512E-02       7    6    1         0.1566509916E+00      0.1567196123E+00
          0                27           2             7    6     1       0.2820302403E-02       7    6    1         0.1566495415E+00      0.1567181699E+00
          0                28           2             7    6     1       0.2820302295E-02       7    6    1         0.1566480915E+00      0.1567166636E+00
          0                29           2             7    6     1       0.2820302186E-02       7    6    1         0.1566466415E+00      0.1567152158E+00
          0                30           2             7    6     1       0.2820302078E-02       7    6    1         0.1566451916E+00      0.1567137424E+00
                                                   Max.-Head-Change                         Max.-Flux-Residual
  Residual-Control   Outer-Iter.   Inner-Iter.     Column Row Layer    Maximum-Head-Change  Column Row Layer    Maximum-Flux-Residual          L2-NORM 
          0                31           2             7    6     1       0.2820301969E-02       7    6    1         0.1566437416E+00      0.1567122833E+00
          0                32           2             7    6     1       0.2820301861E-02       7    6    1         0.1566422917E+00      0.1567108006E+00
          0                33           2             7    6     1       0.2820301752E-02       7    6    1         0.1566408418E+00      0.1567093543E+00
          0                34           2             7    6     1       0.2820301644E-02       7    6    1         0.1566393920E+00      0.1567078578E+00
          0                35           2             7    6     1       0.2820301535E-02       7    6    1         0.1566379421E+00      0.1567064382E+00
          0                36           2             7    6     1       0.2820301426E-02       7    6    1         0.1566364924E+00      0.1567049143E+00
          0                37           2             7    6     1       0.2820301318E-02       7    6    1         0.1566350426E+00      0.1567034673E+00
          0                38           2             7    6     1       0.2820301210E-02       7    6    1         0.1566335929E+00      0.1567019955E+00
          0                39           2             7    6     1       0.2820301101E-02       7    6    1         0.1566321431E+00      0.1567005305E+00
          0                40           2             7    6     1       0.2820300993E-02       7    6    1         0.1566306934E+00      0.1566990850E+00
                                                   Max.-Head-Change                         Max.-Flux-Residual
  Residual-Control   Outer-Iter.   Inner-Iter.     Column Row Layer    Maximum-Head-Change  Column Row Layer    Maximum-Flux-Residual          L2-NORM 
          0                41           2             7    6     1       0.2820300335E-02       7    6    1         0.1566292348E+00      0.1566975850E+00
          0                42           2             7    6     1       0.2820299621E-02       7    6    1         0.1566277795E+00      0.1566960976E+00
          0                43           2             7    6     1       0.2820299015E-02       7    6    1         0.1566263303E+00      0.1566946524E+00
          0                44           2             7    6     1       0.2820298401E-02       7    6    1         0.1566248807E+00      0.1566931755E+00
          0                45           2             7    6     1       0.2820297787E-02       7    6    1         0.1566234311E+00      0.1566917156E+00
          0                46           2             7    6     1       0.2820297173E-02       7    6    1         0.1566219816E+00      0.1566902342E+00
          0                47           2             7    6     1       0.2820296560E-02       7    6    1         0.1566205321E+00      0.1566888145E+00
          0                48           2             7    6     1       0.2820295946E-02       7    6    1         0.1566190826E+00      0.1566872867E+00
          0                49           2             7    6     1       0.2820312502E-02       7    6    1         0.1566185868E+00      0.1566867905E+00
          0                50           2             7    6     1       0.2820293337E-02       7    6    1         0.1566161069E+00      0.1566842941E+00
                                                   Max.-Head-Change                         Max.-Flux-Residual
  Residual-Control   Outer-Iter.   Inner-Iter.     Column Row Layer    Maximum-Head-Change  Column Row Layer    Maximum-Flux-Residual          L2-NORM 
          0                51           2             7    6     1       0.2820294216E-02       7    6    1         0.1566147405E+00      0.1566829264E+00
          0                52           2             7    6     1       0.2820293481E-02       7    6    1         0.1566132845E+00      0.1566814477E+00
          0                53           2             7    6     1       0.2820292878E-02       7    6    1         0.1566118357E+00      0.1566799646E+00
          0                54           2             7    6     1       0.2820292263E-02       7    6    1         0.1566103863E+00      0.1566785052E+00
          0                55           2             7    6     1       0.2820291649E-02       7    6    1         0.1566089370E+00      0.1566770183E+00
          0                56           2             7    6     1       0.2820291035E-02       7    6    1         0.1566074878E+00      0.1566755863E+00
          0                57           2             7    6     1       0.2820290422E-02       7    6    1         0.1566060385E+00      0.1566740979E+00
          0                58           2             7    6     1       0.2820289808E-02       7    6    1         0.1566045893E+00      0.1566726550E+00
          0                59           2             7    6     1       0.2820289194E-02       7    6    1         0.1566031401E+00      0.1566711494E+00
          0                60           2             7    6     1       0.2820288580E-02       7    6    1         0.1566016910E+00      0.1566697049E+00
                                                   Max.-Head-Change                         Max.-Flux-Residual
  Residual-Control   Outer-Iter.   Inner-Iter.     Column Row Layer    Maximum-Head-Change  Column Row Layer    Maximum-Flux-Residual          L2-NORM 
          0                61           2             7    6     1       0.2820287967E-02       7    6    1         0.1566002419E+00      0.1566682341E+00
          0                62           2             7    6     1       0.2820287352E-02       7    6    1         0.1565987927E+00      0.1566667723E+00
          0                63           2             7    6     1       0.2820286739E-02       7    6    1         0.1565973437E+00      0.1566653045E+00
          0                64           2             7    6     1       0.2820286125E-02       7    6    1         0.1565958946E+00      0.1566638348E+00
          0                65           2             7    6     1       0.2820285511E-02       7    6    1         0.1565944456E+00      0.1566623625E+00
          0                66           2             7    6     1       0.2820284898E-02       7    6    1         0.1565929966E+00      0.1566609186E+00
          0                67           2             7    6     1       0.2820284284E-02       7    6    1         0.1565915477E+00      0.1566594223E+00
          0                68           2             7    6     1       0.2820283670E-02       7    6    1         0.1565900987E+00      0.1566579618E+00
          0                69           2             7    6     1       0.2820283056E-02       7    6    1         0.1565886498E+00      0.1566565181E+00
          0                70           2             7    6     1       0.2820282442E-02       7    6    1         0.1565872009E+00      0.1566550365E+00
                                                   Max.-Head-Change                         Max.-Flux-Residual
  Residual-Control   Outer-Iter.   Inner-Iter.     Column Row Layer    Maximum-Head-Change  Column Row Layer    Maximum-Flux-Residual          L2-NORM 
          0                71           2             7    6     1       0.2820281828E-02       7    6    1         0.1565857520E+00      0.1566535659E+00
          0                72           2             7    6     1       0.2820281215E-02       7    6    1         0.1565843032E+00      0.1566521227E+00
          0                73           2             7    6     1       0.2820280601E-02       7    6    1         0.1565828544E+00      0.1566506273E+00
          0                74           2             7    6     1       0.2820279987E-02       7    6    1         0.1565814057E+00      0.1566491824E+00
          0                75           2             7    6     1       0.2820279373E-02       7    6    1         0.1565799569E+00      0.1566476904E+00
          0                76           2             7    6     1       0.2820278760E-02       7    6    1         0.1565785082E+00      0.1566462380E+00
          0                77           2             7    6     1       0.2820278145E-02       7    6    1         0.1565770594E+00      0.1566447889E+00
          0                78           2             7    6     1       0.2820277532E-02       7    6    1         0.1565756108E+00      0.1566433188E+00
          0                79           2             7    6     1       0.2820276918E-02       7    6    1         0.1565741621E+00      0.1566418218E+00
          0                80           2             7    6     1       0.2820276304E-02       7    6    1         0.1565727135E+00      0.1566404034E+00
                                                   Max.-Head-Change                         Max.-Flux-Residual
  Residual-Control   Outer-Iter.   Inner-Iter.     Column Row Layer    Maximum-Head-Change  Column Row Layer    Maximum-Flux-Residual          L2-NORM 
          0                81           2             7    6     1       0.2820275690E-02       7    6    1         0.1565712649E+00      0.1566389043E+00
          0                82           2             7    6     1       0.2820275077E-02       7    6    1         0.1565698164E+00      0.1566374523E+00
          0                83           2             7    6     1       0.2820274463E-02       7    6    1         0.1565683678E+00      0.1566359863E+00
          0                84           2             7    6     1       0.2820273849E-02       7    6    1         0.1565669193E+00      0.1566345253E+00
          0                85           2             7    6     1       0.2820273235E-02       7    6    1         0.1565654708E+00      0.1566330407E+00
          0                86           2             7    6     1       0.2820272622E-02       7    6    1         0.1565640224E+00      0.1566315905E+00
          0                87           2             7    6     1       0.2820272008E-02       7    6    1         0.1565625739E+00      0.1566301279E+00
          0                88           2             7    6     1       0.2820271394E-02       7    6    1         0.1565611255E+00      0.1566286620E+00
          0                89           2             7    6     1       0.2820270780E-02       7    6    1         0.1565596772E+00      0.1566272151E+00
          0                90           2             7    6     1       0.3319337186E-02       7    6    1         0.1842673890E+00      0.1843247300E+00
                                                   Max.-Head-Change                         Max.-Flux-Residual
  Residual-Control   Outer-Iter.   Inner-Iter.     Column Row Layer    Maximum-Head-Change  Column Row Layer    Maximum-Flux-Residual          L2-NORM 
          0                91           2             7    6     1       0.3633028082E-02       7    6    1         0.2016781340E+00      0.2017316246E+00
          0                92           2             7    6     1       0.3688314913E-02       7    6    1         0.2047425467E+00      0.2047961688E+00
          0                93           2             7    6     1       0.3698069832E-02       7    6    1         0.2052812524E+00      0.2053350542E+00
          0                94           2             7    6     1       0.3699792156E-02       7    6    1         0.2053747665E+00      0.2054286182E+00
          0                95           2             7    6     1       0.3700095678E-02       7    6    1         0.2053897146E+00      0.2054435541E+00
          0                96           2             7    6     1       0.2310234039E-02       7    6    1         0.1282242236E+00      0.1283104562E+00
          0                97           2             7    6     1       0.4071001602E-03       7    6    1         0.2257564484E-01      0.2303289523E-01
          0                98           1             7    6     1       0.7182431942E-04       7    6    1         0.3979546602E-02      0.5970938710E-02
          0                99           1             2   13     1      -0.6694978566E-04       2   13    1        -0.3859183350E-02      0.4494959649E-02
          0               100           1             2   13     1      -0.6689596267E-04       2   13    1        -0.3855918441E-02      0.4438385701E-02
                                                   Max.-Head-Change                         Max.-Flux-Residual
  Residual-Control   Outer-Iter.   Inner-Iter.     Column Row Layer    Maximum-Head-Change  Column Row Layer    Maximum-Flux-Residual          L2-NORM 
          0               101           1             2   13     1      -0.6690732456E-04       2   13    1        -0.3856430608E-02      0.4437240489E-02
          0               102           1             2   13     1      -0.6691737634E-04       2   13    1        -0.3856914970E-02      0.4437903145E-02
          0               103           1             2   13     1      -0.6689251452E-04       2   13    1        -0.3855493286E-02      0.4437053005E-02
          0               104           1             2   13     1      -0.6687745819E-04       2   13    1        -0.3854150826E-02      0.4436002534E-02
          0               105           1             2   13     1      -0.6685173504E-04       2   13    1        -0.3852716877E-02      0.4435267443E-02
          0               106           1             2   13     1      -0.6683047438E-04       2   13    1        -0.3851345484E-02      0.4434340908E-02
          0               107           1             2   13     1      -0.6684162936E-04       2   13    1        -0.3851862632E-02      0.4434922756E-02
          0               108           1             2   13     1      -0.6681276139E-04       2   13    1        -0.3850223066E-02      0.4434164280E-02
          0               109           1             2   13     1      -0.6680340984E-04       2   13    1        -0.3849210555E-02      0.4433697964E-02
          0               110           1             2   13     1      -0.6678572645E-04       2   13    1        -0.3848230238E-02      0.4432877936E-02
                                                   Max.-Head-Change                         Max.-Flux-Residual
  Residual-Control   Outer-Iter.   Inner-Iter.     Column Row Layer    Maximum-Head-Change  Column Row Layer    Maximum-Flux-Residual          L2-NORM 
          0               111           1             2   13     1      -0.6676524073E-04       2   13    1        -0.3847097187E-02      0.4432554028E-02
          0               112           1             2   13     1      -0.6676400442E-04       2   13    1        -0.3846704521E-02      0.4432414535E-02
          0               113           1             2   13     1      -0.6674403116E-04       2   13    1        -0.3845429281E-02      0.4431790391E-02
          0               114           1             2   13     1      -0.6671862730E-04       2   13    1        -0.3843668608E-02      0.4430567442E-02
          0               115           1             2   13     1      -0.6673224433E-04       2   13    1        -0.3844654613E-02      0.4432148510E-02
          0               116           1             2   13     1      -0.6669417981E-04       2   13    1        -0.3842142113E-02      0.4430238164E-02
          0               117           1             2   13     1      -0.6668054055E-04       2   13    1        -0.3841072455E-02      0.4429834189E-02
          0               118           1             2   13     1      -0.6667160656E-04       2   13    1        -0.3840596954E-02      0.4429727989E-02
          0               119           1             2   13     1      -0.7494749432E-05       2   13    1        -0.4316483501E-03      0.5647554071E-03

    ------------------------------------------------
       NWT REQUIRED          119 OUTER ITERATIONS 
       AND A TOTAL OF        216 INNER ITERATIONS.
    ------------------------------------------------

 NO OUTPUT CONTROL FOR STRESS PERIOD   19   TIME STEP   27
 
 SOLVING FOR HEAD 
                                                   Max.-Head-Change                         Max.-Flux-Residual
  Residual-Control   Outer-Iter.   Inner-Iter.     Column Row Layer    Maximum-Head-Change  Column Row Layer    Maximum-Flux-Residual          L2-NORM 
          0                 1           2             7    6     1       0.1284560192E-01       7    6    1         0.6878457896E+00      0.1830225305E+01
          0                 2           2             7    6     1      -0.2855265573E+00       7    6    1        -0.1572401839E+02      0.1572912596E+02
          0                 3           2             7    6     1       0.2235173772E-01       7    6    1         0.1243965116E+01      0.1254651040E+01
          0                 4           2             7    6     1       0.1109734843E-02       7    6    1         0.6181352561E-01      0.8710601996E-01
          0                 5           2             7    6     1       0.2816515747E-02       7    6    1         0.1565154870E+00      0.1589043742E+00
          0                 6           2             7    6     1       0.2680642099E-02       7    6    1         0.1489275253E+00      0.1494831675E+00
          0                 7           2             7    6     1       0.2691675745E-02       7    6    1         0.1495339836E+00      0.1496965878E+00
          0                 8           2             7    6     1       0.2690833575E-02       7    6    1         0.1494848464E+00      0.1495689987E+00
          0                 9           2             7    6     1       0.2690887702E-02       7    6    1         0.1494863357E+00      0.1495547552E+00
          0                10           2             7    6     1       0.2690900884E-02       7    6    1         0.1494856752E+00      0.1495508856E+00
                                                   Max.-Head-Change                         Max.-Flux-Residual
  Residual-Control   Outer-Iter.   Inner-Iter.     Column Row Layer    Maximum-Head-Change  Column Row Layer    Maximum-Flux-Residual          L2-NORM 
          0                11           2             7    6     1       0.2690882541E-02       7    6    1         0.1494832796E+00      0.1495478656E+00
          0                12           2             7    6     1       0.2690901019E-02       7    6    1         0.1494829305E+00      0.1495473619E+00
          0                13           2             7    6     1       0.2690882241E-02       7    6    1         0.1494805100E+00      0.1495449013E+00
          0                14           2             7    6     1       0.2690900788E-02       7    6    1         0.1494801629E+00      0.1495445570E+00
          0                15           2             7    6     1       0.2690882025E-02       7    6    1         0.1494777423E+00      0.1495420949E+00
          0                16           2             7    6     1       0.2690900583E-02       7    6    1         0.1494773954E+00      0.1495417240E+00
          0                17           2             7    6     1       0.2690881823E-02       7    6    1         0.1494749747E+00      0.1495393209E+00
          0                18           2             7    6     1       0.2690900385E-02       7    6    1         0.1494746279E+00      0.1495389412E+00
          0                19           2             7    6     1       0.2690881625E-02       7    6    1         0.1494722073E+00      0.1495364953E+00
          0                20           2             7    6     1       0.2690900187E-02       7    6    1         0.1494718605E+00      0.1495361725E+00
                                                   Max.-Head-Change                         Max.-Flux-Residual
  Residual-Control   Outer-Iter.   Inner-Iter.     Column Row Layer    Maximum-Head-Change  Column Row Layer    Maximum-Flux-Residual          L2-NORM 
          0                21           2             7    6     1       0.2690881426E-02       7    6    1         0.1494694399E+00      0.1495336825E+00
          0                22           2             7    6     1       0.2690899990E-02       7    6    1         0.1494690932E+00      0.1495333539E+00
          0                23           2             7    6     1       0.2690881228E-02       7    6    1         0.1494666727E+00      0.1495309052E+00
          0                24           2             7    6     1       0.2690899792E-02       7    6    1         0.1494663260E+00      0.1495305520E+00
          0                25           2             7    6     1       0.2690881031E-02       7    6    1         0.1494639055E+00      0.1495281182E+00
          0                26           2             7    6     1       0.2690882428E-02       7    6    1         0.1494626053E+00      0.1495268161E+00
          0                27           2             7    6     1       0.2690899376E-02       7    6    1         0.1494621688E+00      0.1495263307E+00
          0                28           2             7    6     1       0.2690863576E-02       7    6    1         0.1494588018E+00      0.1495229628E+00
          0                29           2             7    6     1       0.2690900675E-02       7    6    1         0.1494594851E+00      0.1495236292E+00
          0                30           2             7    6     1       0.2690863257E-02       7    6    1         0.1494560283E+00      0.1495201684E+00
                                                   Max.-Head-Change                         Max.-Flux-Residual
  Residual-Control   Outer-Iter.   Inner-Iter.     Column Row Layer    Maximum-Head-Change  Column Row Layer    Maximum-Flux-Residual          L2-NORM 
          0                31           2             7    6     1       0.2690900488E-02       7    6    1         0.1494567188E+00      0.1495208446E+00
          0                32           2             7    6     1       0.2690863058E-02       7    6    1         0.1494532614E+00      0.1495173524E+00
          0                33           2             7    6     1       0.2690900291E-02       7    6    1         0.1494539521E+00      0.1495180293E+00
          0                34           2             7    6     1       0.2690862859E-02       7    6    1         0.1494504947E+00      0.1495145648E+00
          0                35           2             7    6     1       0.2690900094E-02       7    6    1         0.1494511856E+00      0.1495152565E+00
          0                36           2             7    6     1       0.2690862661E-02       7    6    1         0.1494477281E+00      0.1495117618E+00
          0                37           2             7    6     1       0.2690899898E-02       7    6    1         0.1494484191E+00      0.1495124490E+00
          0                38           2             7    6     1       0.2690862463E-02       7    6    1         0.1494449616E+00      0.1495089705E+00
          0                39           2             7    6     1       0.2690899442E-02       7    6    1         0.1494456498E+00      0.1495096578E+00
          0                40           2             7    6     1       0.2690861350E-02       7    6    1         0.1494421815E+00      0.1495061513E+00
                                                   Max.-Head-Change                         Max.-Flux-Residual
  Residual-Control   Outer-Iter.   Inner-Iter.     Column Row Layer    Maximum-Head-Change  Column Row Layer    Maximum-Flux-Residual          L2-NORM 
          0                41           2             7    6     1       0.2690898145E-02       7    6    1         0.1494428735E+00      0.1495068571E+00
          0                42           2             7    6     1       0.2690860247E-02       7    6    1         0.1494394160E+00      0.1495033646E+00
          0                43           2             7    6     1       0.2690897027E-02       7    6    1         0.1494401072E+00      0.1495040417E+00
          0                44           2             7    6     1       0.2690859129E-02       7    6    1         0.1494366498E+00      0.1495005538E+00
          0                45           2             7    6     1       0.2690895911E-02       7    6    1         0.1494373411E+00      0.1495012632E+00
          0                46           2             7    6     1       0.2690858010E-02       7    6    1         0.1494338837E+00      0.1494977866E+00
          0                47           2             7    6     1       0.2690894794E-02       7    6    1         0.1494345751E+00      0.1494984442E+00
          0                48           2             7    6     1       0.2690856892E-02       7    6    1         0.1494311178E+00      0.1494949758E+00
          0                49           2             7    6     1       0.2690893677E-02       7    6    1         0.1494318093E+00      0.1494956488E+00
          0                50           2             7    6     1       0.2690855774E-02       7    6    1         0.1494283519E+00      0.1494922206E+00
                                                   Max.-Head-Change                         Max.-Flux-Residual
  Residual-Control   Outer-Iter.   Inner-Iter.     Column Row Layer    Maximum-Head-Change  Column Row Layer    Maximum-Flux-Residual          L2-NORM 
          0                51           2             7    6     1       0.2690892560E-02       7    6    1         0.1494290435E+00      0.1494928403E+00
          0                52           2             7    6     1       0.2690888997E-02       7    6    1         0.1494274935E+00      0.1494912627E+00
          0                53           2             7    6     1       0.2690888681E-02       7    6    1         0.1494261241E+00      0.1494899438E+00
          0                54           2             7    6     1       0.2690888103E-02       7    6    1         0.1494247402E+00      0.1494884968E+00
          0                55           2             7    6     1       0.2690887545E-02       7    6    1         0.1494233575E+00      0.1494871196E+00
          0                56           2             7    6     1       0.2690886987E-02       7    6    1         0.1494219747E+00      0.1494857176E+00
          0                57           2             7    6     1       0.2690886427E-02       7    6    1         0.1494205920E+00      0.1494843194E+00
          0                58           2             7    6     1       0.2690885869E-02       7    6    1         0.1494192093E+00      0.1494829271E+00
          0                59           2             7    6     1       0.2690885310E-02       7    6    1         0.1494178266E+00      0.1494815446E+00
          0                60           2             7    6     1       0.2690884751E-02       7    6    1         0.1494164439E+00      0.1494801067E+00
                                                   Max.-Head-Change                         Max.-Flux-Residual
  Residual-Control   Outer-Iter.   Inner-Iter.     Column Row Layer    Maximum-Head-Change  Column Row Layer    Maximum-Flux-Residual          L2-NORM 
          0                61           2             7    6     1       0.2690884193E-02       7    6    1         0.1494150613E+00      0.1494787374E+00
          0                62           2             7    6     1       0.2690883634E-02       7    6    1         0.1494136787E+00      0.1494773432E+00
          0                63           2             7    6     1       0.2690883075E-02       7    6    1         0.1494122961E+00      0.1494759222E+00
          0                64           2             7    6     1       0.2690882516E-02       7    6    1         0.1494109135E+00      0.1494745403E+00
          0                65           2             7    6     1       0.2690881958E-02       7    6    1         0.1494095310E+00      0.1494731363E+00
          0                66           2             7    6     1       0.2690881398E-02       7    6    1         0.1494081485E+00      0.1494717363E+00
          0                67           2             7    6     1       0.2690880840E-02       7    6    1         0.1494067660E+00      0.1494702705E+00
          0                68           2             7    6     1       0.2690880281E-02       7    6    1         0.1494053835E+00      0.1494690658E+00
          0                69           2             7    6     1       0.2690879722E-02       7    6    1         0.1494040011E+00      0.1494675273E+00
          0                70           2             7    6     1       0.2690879164E-02       7    6    1         0.1494026187E+00      0.1494661693E+00
                                                   Max.-Head-Change                         Max.-Flux-Residual
  Residual-Control   Outer-Iter.   Inner-Iter.     Column Row Layer    Maximum-Head-Change  Column Row Layer    Maximum-Flux-Residual          L2-NORM 
          0                71           2             7    6     1       0.2690878605E-02       7    6    1         0.1494012363E+00      0.1494647631E+00
          0                72           2             7    6     1       0.2690878046E-02       7    6    1         0.1493998539E+00      0.1494633627E+00
          0                73           2             7    6     1       0.2690877487E-02       7    6    1         0.1493984716E+00      0.1494619684E+00
          0                74           2             7    6     1       0.2690876929E-02       7    6    1         0.1493970893E+00      0.1494605632E+00
          0                75           2             7    6     1       0.2690876369E-02       7    6    1         0.1493957070E+00      0.1494591838E+00
          0                76           2             7    6     1       0.2690875811E-02       7    6    1         0.1493943248E+00      0.1494577804E+00
          0                77           2             7    6     1       0.2690875252E-02       7    6    1         0.1493929425E+00      0.1494563775E+00
          0                78           2             7    6     1       0.2690874693E-02       7    6    1         0.1493915603E+00      0.1494549807E+00
          0                79           2             7    6     1       0.2690874134E-02       7    6    1         0.1493901782E+00      0.1494535896E+00
          0                80           2             7    6     1       0.2690873576E-02       7    6    1         0.1493887960E+00      0.1494521991E+00
                                                   Max.-Head-Change                         Max.-Flux-Residual
  Residual-Control   Outer-Iter.   Inner-Iter.     Column Row Layer    Maximum-Head-Change  Column Row Layer    Maximum-Flux-Residual          L2-NORM 
          0                81           2             7    6     1       0.2690873017E-02       7    6    1         0.1493874139E+00      0.1494507918E+00
          0                82           2             7    6     1       0.2690872458E-02       7    6    1         0.1493860318E+00      0.1494494132E+00
          0                83           2             7    6     1       0.2690871899E-02       7    6    1         0.1493846497E+00      0.1494479754E+00
          0                84           2             7    6     1       0.2690871341E-02       7    6    1         0.1493832677E+00      0.1494466550E+00
          0                85           2             7    6     1       0.2690870782E-02       7    6    1         0.1493818856E+00      0.1494451985E+00
          0                86           2             7    6     1       0.2690870223E-02       7    6    1         0.1493805036E+00      0.1494438223E+00
          0                87           2             7    6     1       0.2690869664E-02       7    6    1         0.1493791217E+00      0.1494424168E+00
          0                88           2             7    6     1       0.2690869106E-02       7    6    1         0.1493777397E+00      0.1494411011E+00
          0                89           2             7    6     1       0.2690868547E-02       7    6    1         0.1493763578E+00      0.1494395740E+00
          0                90           2             7    6     1       0.2690867988E-02       7    6    1         0.1493749759E+00      0.1494382316E+00
                                                   Max.-Head-Change                         Max.-Flux-Residual
  Residual-Control   Outer-Iter.   Inner-Iter.     Column Row Layer    Maximum-Head-Change  Column Row Layer    Maximum-Flux-Residual          L2-NORM 
          0                91           2             7    6     1       0.2690867429E-02       7    6    1         0.1493735940E+00      0.1494368509E+00
          0                92           2             7    6     1       0.2690866870E-02       7    6    1         0.1493722122E+00      0.1494354619E+00
          0                93           2             7    6     1       0.2690866312E-02       7    6    1         0.1493708303E+00      0.1494340468E+00
          0                94           2             7    6     1       0.2907063094E-02       7    6    1         0.1613727138E+00      0.1614312256E+00
          0                95           2             7    6     1       0.3420546059E-02       7    6    1         0.1898777445E+00      0.1899279199E+00
          0                96           2             7    6     1       0.3511007182E-02       7    6    1         0.1948937422E+00      0.1949438917E+00
          0                97           2             7    6     1       0.3526962242E-02       7    6    1         0.1957762221E+00      0.1958266186E+00
          0                98           2             7    6     1       0.3529778865E-02       7    6    1         0.1959304259E+00      0.1959808511E+00
          0                99           2             7    6     1       0.3530275846E-02       7    6    1         0.1959561614E+00      0.1960066618E+00
          0               100           2             7    6     1       0.3530362788E-02       7    6    1         0.1959592076E+00      0.1960096507E+00
                                                   Max.-Head-Change                         Max.-Flux-Residual
  Residual-Control   Outer-Iter.   Inner-Iter.     Column Row Layer    Maximum-Head-Change  Column Row Layer    Maximum-Flux-Residual          L2-NORM 
          0               101           2             7    6     1       0.8858577492E-03       7    6    1         0.4914389540E-01      0.4934477819E-01
          0               102           2             7    6     1       0.1561678450E-03       7    6    1         0.8656074494E-02      0.9634977203E-02
          0               103           1             2   13     1      -0.6408129206E-04       2   13    1        -0.3630053416E-02      0.4464714657E-02
          0               104           1             2   13     1      -0.6402978695E-04       2   13    1        -0.3627205275E-02      0.4199886060E-02
          0               105           1             2   13     1      -0.6410105996E-04       2   13    1        -0.3630823993E-02      0.4194455842E-02
          0               106           1             2   13     1      -0.6403044911E-04       2   13    1        -0.3626913343E-02      0.4191238168E-02
          0               107           1             2   13     1      -0.6403125447E-04       2   13    1        -0.3626867142E-02      0.4191051206E-02
          0               108           1             2   13     1      -0.6402727020E-04       2   13    1        -0.3626716281E-02      0.4191796581E-02
          0               109           1             2   13     1      -0.6400470331E-04       2   13    1        -0.3625175760E-02      0.4190203581E-02
          0               110           1             2   13     1      -0.6400220382E-04       2   13    1        -0.3624788247E-02      0.4190450214E-02
                                                   Max.-Head-Change                         Max.-Flux-Residual
  Residual-Control   Outer-Iter.   Inner-Iter.     Column Row Layer    Maximum-Head-Change  Column Row Layer    Maximum-Flux-Residual          L2-NORM 
          0               111           1             2   13     1      -0.6396934561E-04       2   13    1        -0.3623013723E-02      0.4189086679E-02
          0               112           1             2   13     1      -0.6397640837E-04       2   13    1        -0.3623483638E-02      0.4189932851E-02
          0               113           1             2   13     1      -0.6394299141E-04       2   13    1        -0.3621141555E-02      0.4188102456E-02
          0               114           1             2   13     1      -0.6402502508E-04       2   13    1        -0.3627745618E-02      0.4200443599E-02
          0               115           1             2   13     1      -0.6384558429E-04       2   13    1        -0.3613724482E-02      0.4186657674E-02
          0               116           1             2   13     1      -0.6393907367E-04       2   13    1        -0.3620925664E-02      0.4189288577E-02
          0               117           1             2   13     1      -0.6390759369E-04       2   13    1        -0.3619135829E-02      0.4187732764E-02
          0               118           1             2   13     1      -0.6394058872E-04       2   13    1        -0.3622381928E-02      0.4195940456E-02
          0               119           1             2   13     1      -0.6381303284E-04       2   13    1        -0.3611586552E-02      0.4186033792E-02
          0               120           1             2   13     1      -0.6386923266E-04       2   13    1        -0.3616573445E-02      0.4186862797E-02
                                                   Max.-Head-Change                         Max.-Flux-Residual
  Residual-Control   Outer-Iter.   Inner-Iter.     Column Row Layer    Maximum-Head-Change  Column Row Layer    Maximum-Flux-Residual          L2-NORM 
          0               121           1             2   13     1      -0.6386110505E-04       2   13    1        -0.3616143173E-02      0.4186934465E-02
          0               122           1             2   13     1      -0.6384589205E-04       2   13    1        -0.3615029061E-02      0.4186201384E-02
          0               123           1             2   13     1      -0.6381461329E-04       2   13    1        -0.3613010284E-02      0.4184780057E-02
          0               124           1             2   13     1      -0.5423893817E-04       2   13    1        -0.3070899918E-02      0.3565958944E-02
          0               125           1             2   13     1       0.5334071414E-05       2   13    1         0.3050307987E-03      0.3540168382E-03

    ------------------------------------------------
       NWT REQUIRED          125 OUTER ITERATIONS 
       AND A TOTAL OF        227 INNER ITERATIONS.
    ------------------------------------------------

 NO OUTPUT CONTROL FOR STRESS PERIOD   19   TIME STEP   28
 
 SOLVING FOR HEAD 
                                                   Max.-Head-Change                         Max.-Flux-Residual
  Residual-Control   Outer-Iter.   Inner-Iter.     Column Row Layer    Maximum-Head-Change  Column Row Layer    Maximum-Flux-Residual          L2-NORM 
          0                 1           2             7    6     1       0.1236757819E-01       7    6    1         0.6615611616E+00      0.1820463982E+01
          0                 2           2             7    6     1      -0.2857358951E+00       7    6    1        -0.1573559817E+02      0.1574070668E+02
          0                 3           2             7    6     1       0.2236024479E-01       7    6    1         0.1244435408E+01      0.1255097343E+01
          0                 4           2             7    6     1       0.9761242230E-03       7    6    1         0.5438873144E-01      0.8196783328E-01
          0                 5           2             7    6     1       0.2694219390E-02       7    6    1         0.1497211830E+00      0.1522094451E+00
          0                 6           2             7    6     1       0.2557467755E-02       7    6    1         0.1420847240E+00      0.1426615214E+00
          0                 7           2             7    6     1       0.2568553367E-02       7    6    1         0.1426941828E+00      0.1428595035E+00
          0                 8           2             7    6     1       0.2567706816E-02       7    6    1         0.1426448735E+00      0.1427281794E+00
          0                 9           2             7    6     1       0.2567761262E-02       7    6    1         0.1426464450E+00      0.1427132151E+00
          0                10           2             7    6     1       0.2567774420E-02       7    6    1         0.1426458463E+00      0.1427092803E+00
                                                   Max.-Head-Change                         Max.-Flux-Residual
  Residual-Control   Outer-Iter.   Inner-Iter.     Column Row Layer    Maximum-Head-Change  Column Row Layer    Maximum-Flux-Residual          L2-NORM 
          0                11           2             7    6     1       0.2567756087E-02       7    6    1         0.1426435141E+00      0.1427062412E+00
          0                12           2             7    6     1       0.2567774573E-02       7    6    1         0.1426432283E+00      0.1427058706E+00
          0                13           2             7    6     1       0.2567755803E-02       7    6    1         0.1426408711E+00      0.1427034341E+00
          0                14           2             7    6     1       0.2567774360E-02       7    6    1         0.1426405875E+00      0.1427031277E+00
          0                15           2             7    6     1       0.2567755605E-02       7    6    1         0.1426382301E+00      0.1427007717E+00
          0                16           2             7    6     1       0.2567774172E-02       7    6    1         0.1426379465E+00      0.1427004585E+00
          0                17           2             7    6     1       0.2567755422E-02       7    6    1         0.1426355892E+00      0.1426981175E+00
          0                18           2             7    6     1       0.2567773991E-02       7    6    1         0.1426353056E+00      0.1426977874E+00
          0                19           2             7    6     1       0.2567755240E-02       7    6    1         0.1426329484E+00      0.1426954076E+00
          0                20           2             7    6     1       0.2567773812E-02       7    6    1         0.1426326649E+00      0.1426951378E+00
                                                   Max.-Head-Change                         Max.-Flux-Residual
  Residual-Control   Outer-Iter.   Inner-Iter.     Column Row Layer    Maximum-Head-Change  Column Row Layer    Maximum-Flux-Residual          L2-NORM 
          0                21           2             7    6     1       0.2567755060E-02       7    6    1         0.1426303076E+00      0.1426927474E+00
          0                22           2             7    6     1       0.2567773632E-02       7    6    1         0.1426300242E+00      0.1426924472E+00
          0                23           2             7    6     1       0.2567754880E-02       7    6    1         0.1426276670E+00      0.1426900797E+00
          0                24           2             7    6     1       0.2567773452E-02       7    6    1         0.1426273836E+00      0.1426897863E+00
          0                25           2             7    6     1       0.2567754699E-02       7    6    1         0.1426250265E+00      0.1426874150E+00
          0                26           2             7    6     1       0.2567773273E-02       7    6    1         0.1426247432E+00      0.1426871180E+00
          0                27           2             7    6     1       0.2567771685E-02       7    6    1         0.1426233397E+00      0.1426856970E+00
          0                28           2             7    6     1       0.2567754549E-02       7    6    1         0.1426210725E+00      0.1426834080E+00
          0                29           2             7    6     1       0.2567790161E-02       7    6    1         0.1426217358E+00      0.1426840754E+00
          0                30           2             7    6     1       0.2567752872E-02       7    6    1         0.1426183489E+00      0.1426806302E+00
                                                   Max.-Head-Change                         Max.-Flux-Residual
  Residual-Control   Outer-Iter.   Inner-Iter.     Column Row Layer    Maximum-Head-Change  Column Row Layer    Maximum-Flux-Residual          L2-NORM 
          0                31           2             7    6     1       0.2567790102E-02       7    6    1         0.1426191023E+00      0.1426814331E+00
          0                32           2             7    6     1       0.2567752682E-02       7    6    1         0.1426157082E+00      0.1426779752E+00
          0                33           2             7    6     1       0.2567789923E-02       7    6    1         0.1426164622E+00      0.1426787513E+00
          0                34           2             7    6     1       0.2567752501E-02       7    6    1         0.1426130681E+00      0.1426753106E+00
          0                35           2             7    6     1       0.2567789744E-02       7    6    1         0.1426138222E+00      0.1426760680E+00
          0                36           2             7    6     1       0.2567752320E-02       7    6    1         0.1426104281E+00      0.1426726434E+00
          0                37           2             7    6     1       0.2567789505E-02       7    6    1         0.1426111820E+00      0.1426733905E+00
          0                38           2             7    6     1       0.2567751436E-02       7    6    1         0.1426077754E+00      0.1426699771E+00
          0                39           2             7    6     1       0.2567788282E-02       7    6    1         0.1426085307E+00      0.1426707092E+00
          0                40           2             7    6     1       0.2567750435E-02       7    6    1         0.1426051365E+00      0.1426673105E+00
                                                   Max.-Head-Change                         Max.-Flux-Residual
  Residual-Control   Outer-Iter.   Inner-Iter.     Column Row Layer    Maximum-Head-Change  Column Row Layer    Maximum-Flux-Residual          L2-NORM 
          0                41           2             7    6     1       0.2567787264E-02       7    6    1         0.1426058909E+00      0.1426680231E+00
          0                42           2             7    6     1       0.2567749416E-02       7    6    1         0.1426024968E+00      0.1426646539E+00
          0                43           2             7    6     1       0.2567786247E-02       7    6    1         0.1426032513E+00      0.1426653684E+00
          0                44           2             7    6     1       0.2567748398E-02       7    6    1         0.1425998571E+00      0.1426619713E+00
          0                45           2             7    6     1       0.2567785230E-02       7    6    1         0.1426006117E+00      0.1426626967E+00
          0                46           2             7    6     1       0.2567747380E-02       7    6    1         0.1425972176E+00      0.1426592907E+00
          0                47           2             7    6     1       0.2567784213E-02       7    6    1         0.1425979723E+00      0.1426600446E+00
          0                48           2             7    6     1       0.2567746361E-02       7    6    1         0.1425945782E+00      0.1426566185E+00
          0                49           2             7    6     1       0.2567783196E-02       7    6    1         0.1425953329E+00      0.1426573668E+00
          0                50           2             7    6     1       0.2567745343E-02       7    6    1         0.1425919388E+00      0.1426539812E+00
                                                   Max.-Head-Change                         Max.-Flux-Residual
  Residual-Control   Outer-Iter.   Inner-Iter.     Column Row Layer    Maximum-Head-Change  Column Row Layer    Maximum-Flux-Residual          L2-NORM 
          0                51           2             7    6     1       0.2567782179E-02       7    6    1         0.1425926937E+00      0.1426546793E+00
          0                52           2             7    6     1       0.2567744325E-02       7    6    1         0.1425892996E+00      0.1426512829E+00
          0                53           2             7    6     1       0.2567763992E-02       7    6    1         0.1425891009E+00      0.1426510909E+00
          0                54           2             7    6     1       0.2567744688E-02       7    6    1         0.1425867373E+00      0.1426486943E+00
          0                55           2             7    6     1       0.2567745691E-02       7    6    1         0.1425855020E+00      0.1426474519E+00
          0                56           2             7    6     1       0.2567745060E-02       7    6    1         0.1425841757E+00      0.1426461094E+00
          0                57           2             7    6     1       0.2567744561E-02       7    6    1         0.1425828568E+00      0.1426447713E+00
          0                58           2             7    6     1       0.2567744051E-02       7    6    1         0.1425815373E+00      0.1426434436E+00
          0                59           2             7    6     1       0.2567743543E-02       7    6    1         0.1425802179E+00      0.1426421122E+00
          0                60           2             7    6     1       0.2567743034E-02       7    6    1         0.1425788985E+00      0.1426407725E+00
                                                   Max.-Head-Change                         Max.-Flux-Residual
  Residual-Control   Outer-Iter.   Inner-Iter.     Column Row Layer    Maximum-Head-Change  Column Row Layer    Maximum-Flux-Residual          L2-NORM 
          0                61           2             7    6     1       0.2567742525E-02       7    6    1         0.1425775791E+00      0.1426394273E+00
          0                62           2             7    6     1       0.2567742016E-02       7    6    1         0.1425762598E+00      0.1426381159E+00
          0                63           2             7    6     1       0.2567741508E-02       7    6    1         0.1425749405E+00      0.1426367657E+00
          0                64           2             7    6     1       0.2567740999E-02       7    6    1         0.1425736212E+00      0.1426354523E+00
          0                65           2             7    6     1       0.2567740490E-02       7    6    1         0.1425723019E+00      0.1426340951E+00
          0                66           2             7    6     1       0.2567739981E-02       7    6    1         0.1425709826E+00      0.1426327832E+00
          0                67           2             7    6     1       0.2567739472E-02       7    6    1         0.1425696634E+00      0.1426314356E+00
          0                68           2             7    6     1       0.2567738963E-02       7    6    1         0.1425683442E+00      0.1426301029E+00
          0                69           2             7    6     1       0.2567738454E-02       7    6    1         0.1425670251E+00      0.1426287735E+00
          0                70           2             7    6     1       0.2567737946E-02       7    6    1         0.1425657059E+00      0.1426274326E+00
                                                   Max.-Head-Change                         Max.-Flux-Residual
  Residual-Control   Outer-Iter.   Inner-Iter.     Column Row Layer    Maximum-Head-Change  Column Row Layer    Maximum-Flux-Residual          L2-NORM 
          0                71           2             7    6     1       0.2567737437E-02       7    6    1         0.1425643868E+00      0.1426260641E+00
          0                72           2             7    6     1       0.2567736928E-02       7    6    1         0.1425630677E+00      0.1426248218E+00
          0                73           2             7    6     1       0.2567736419E-02       7    6    1         0.1425617486E+00      0.1426234385E+00
          0                74           2             7    6     1       0.2567735910E-02       7    6    1         0.1425604296E+00      0.1426221043E+00
          0                75           2             7    6     1       0.2567735402E-02       7    6    1         0.1425591106E+00      0.1426207790E+00
          0                76           2             7    6     1       0.2567734893E-02       7    6    1         0.1425577916E+00      0.1426194347E+00
          0                77           2             7    6     1       0.2567734384E-02       7    6    1         0.1425564726E+00      0.1426181254E+00
          0                78           2             7    6     1       0.2567733875E-02       7    6    1         0.1425551536E+00      0.1426167557E+00
          0                79           2             7    6     1       0.2567733366E-02       7    6    1         0.1425538347E+00      0.1426154376E+00
          0                80           2             7    6     1       0.2567732857E-02       7    6    1         0.1425525158E+00      0.1426141068E+00
                                                   Max.-Head-Change                         Max.-Flux-Residual
  Residual-Control   Outer-Iter.   Inner-Iter.     Column Row Layer    Maximum-Head-Change  Column Row Layer    Maximum-Flux-Residual          L2-NORM 
          0                81           2             7    6     1       0.2567732349E-02       7    6    1         0.1425511969E+00      0.1426127821E+00
          0                82           2             7    6     1       0.2567731840E-02       7    6    1         0.1425498781E+00      0.1426114474E+00
          0                83           2             7    6     1       0.2567731331E-02       7    6    1         0.1425485592E+00      0.1426101184E+00
          0                84           2             7    6     1       0.2567730822E-02       7    6    1         0.1425472404E+00      0.1426087813E+00
          0                85           2             7    6     1       0.2567730313E-02       7    6    1         0.1425459216E+00      0.1426074403E+00
          0                86           2             7    6     1       0.2567729804E-02       7    6    1         0.1425446029E+00      0.1426061170E+00
          0                87           2             7    6     1       0.2567729296E-02       7    6    1         0.1425432842E+00      0.1426047849E+00
          0                88           2             7    6     1       0.2567728786E-02       7    6    1         0.1425419654E+00      0.1426034627E+00
          0                89           2             7    6     1       0.2567728278E-02       7    6    1         0.1425406468E+00      0.1426021101E+00
          0                90           2             7    6     1       0.2567727770E-02       7    6    1         0.1425393281E+00      0.1426007785E+00
                                                   Max.-Head-Change                         Max.-Flux-Residual
  Residual-Control   Outer-Iter.   Inner-Iter.     Column Row Layer    Maximum-Head-Change  Column Row Layer    Maximum-Flux-Residual          L2-NORM 
          0                91           2             7    6     1       0.2567727260E-02       7    6    1         0.1425380095E+00      0.1425994593E+00
          0                92           2             7    6     1       0.2567726752E-02       7    6    1         0.1425366909E+00      0.1425981134E+00
          0                93           2             7    6     1       0.2567726243E-02       7    6    1         0.1425353723E+00      0.1425968087E+00
          0                94           2             7    6     1       0.2567725733E-02       7    6    1         0.1425340537E+00      0.1425954621E+00
          0                95           2             7    6     1       0.2567725225E-02       7    6    1         0.1425327352E+00      0.1425941243E+00
          0                96           2             7    6     1       0.2567724716E-02       7    6    1         0.1425314167E+00      0.1425928048E+00
          0                97           2             7    6     1       0.2567724208E-02       7    6    1         0.1425300982E+00      0.1425914516E+00
          0                98           2             7    6     1       0.2567723699E-02       7    6    1         0.1425287797E+00      0.1425901478E+00
          0                99           2             7    6     1       0.3058558913E-02       7    6    1         0.1697774183E+00      0.1698289563E+00
          0               100           2             7    6     1       0.3314143496E-02       7    6    1         0.1839610751E+00      0.1840096275E+00
                                                   Max.-Head-Change                         Max.-Flux-Residual
  Residual-Control   Outer-Iter.   Inner-Iter.     Column Row Layer    Maximum-Head-Change  Column Row Layer    Maximum-Flux-Residual          L2-NORM 
          0               101           2             7    6     1       0.3359174841E-02       7    6    1         0.1864565445E+00      0.1865053169E+00
          0               102           2             7    6     1       0.3367117708E-02       7    6    1         0.1868949420E+00      0.1869438216E+00
          0               103           2             7    6     1       0.3368519634E-02       7    6    1         0.1869708676E+00      0.1870198194E+00
          0               104           2             7    6     1       0.3368766598E-02       7    6    1         0.1869828457E+00      0.1870317957E+00
          0               105           2             7    6     1       0.2931109681E-02       7    6    1         0.1626848606E+00      0.1627411140E+00
          0               106           2             7    6     1       0.5162425713E-03       7    6    1         0.2862817643E-01      0.2893890497E-01
          0               107           1             7    6     1       0.9103342256E-04       7    6    1         0.5043869956E-02      0.6473716466E-02
          0               108           1             2   13     1      -0.6133779710E-04       2   13    1        -0.3503363306E-02      0.4136164444E-02
          0               109           1             2   13     1      -0.6131845168E-04       2   13    1        -0.3501795342E-02      0.4039771851E-02
          0               110           1             2   13     1      -0.6129377051E-04       2   13    1        -0.3500462506E-02      0.4035806332E-02
                                                   Max.-Head-Change                         Max.-Flux-Residual
  Residual-Control   Outer-Iter.   Inner-Iter.     Column Row Layer    Maximum-Head-Change  Column Row Layer    Maximum-Flux-Residual          L2-NORM 
          0               111           1             2   13     1      -0.6129723302E-04       2   13    1        -0.3500537632E-02      0.4036023880E-02
          0               112           1             2   13     1      -0.6128306128E-04       2   13    1        -0.3499613096E-02      0.4035608978E-02
          0               113           1             2   13     1      -0.6126851626E-04       2   13    1        -0.3498653326E-02      0.4034896482E-02
          0               114           1             2   13     1      -0.6127737435E-04       2   13    1        -0.3499087981E-02      0.4035279293E-02
          0               115           1             2   13     1      -0.6124826165E-04       2   13    1        -0.3497282296E-02      0.4034516300E-02
          0               116           1             2   13     1      -0.6122824809E-04       2   13    1        -0.3496029541E-02      0.4033420098E-02
          0               117           1             2   13     1      -0.6124453236E-04       2   13    1        -0.3497017553E-02      0.4034706666E-02
          0               118           1             2   13     1      -0.6120445420E-04       2   13    1        -0.3494433199E-02      0.4032598494E-02
          0               119           1             2   13     1      -0.6120992061E-04       2   13    1        -0.3494462714E-02      0.4032947986E-02
          0               120           1             2   13     1      -0.6119624055E-04       2   13    1        -0.3493780793E-02      0.4032502478E-02
                                                   Max.-Head-Change                         Max.-Flux-Residual
  Residual-Control   Outer-Iter.   Inner-Iter.     Column Row Layer    Maximum-Head-Change  Column Row Layer    Maximum-Flux-Residual          L2-NORM 
          0               121           1             2   13     1      -0.6118087136E-04       2   13    1        -0.3492757854E-02      0.4032038929E-02
          0               122           1             2   13     1      -0.6115536125E-04       2   13    1        -0.3491182359E-02      0.4031352509E-02
          0               123           1             2   13     1      -0.6117579500E-04       2   13    1        -0.3492245429E-02      0.4032308265E-02
          0               124           1             2   13     1      -0.6114840463E-04       2   13    1        -0.3490570535E-02      0.4030816086E-02
          0               125           1             2   13     1      -0.6112930446E-04       2   13    1        -0.3489525616E-02      0.4030621605E-02
          0               126           1             2   13     1      -0.6113426703E-04       2   13    1        -0.3489359146E-02      0.4030839874E-02
          0               127           1             2   13     1      -0.6110263497E-04       2   13    1        -0.3487622327E-02      0.4029624313E-02
          0               128           1             2   13     1      -0.6111296974E-04       2   13    1        -0.3488091518E-02      0.4030403839E-02
          0               129           1             2   13     1      -0.6108370079E-04       2   13    1        -0.3486463597E-02      0.4029735563E-02
          0               130           1             2   13     1      -0.4793914413E-04       2   13    1        -0.2735807972E-02      0.3172733203E-02
          0               131           1             2   13     1       0.4290036151E-05       2   13    1         0.2472256674E-03      0.2944795752E-03

    ------------------------------------------------
       NWT REQUIRED          131 OUTER ITERATIONS 
       AND A TOTAL OF        237 INNER ITERATIONS.
    ------------------------------------------------

 NO OUTPUT CONTROL FOR STRESS PERIOD   19   TIME STEP   29
 
 SOLVING FOR HEAD 
                                                   Max.-Head-Change                         Max.-Flux-Residual
  Residual-Control   Outer-Iter.   Inner-Iter.     Column Row Layer    Maximum-Head-Change  Column Row Layer    Maximum-Flux-Residual          L2-NORM 
          0                 1           2             7    6     1       0.1192117055E-01       7    6    1         0.6371598500E+00      0.1811831537E+01
          0                 2           2             7    6     1      -0.2859344627E+00       7    6    1        -0.1574655751E+02      0.1575164083E+02
          0                 3           2             7    6     1       0.2236603974E-01       7    6    1         0.1244759715E+01      0.1255406428E+01
          0                 4           2             7    6     1       0.8491268947E-03       7    6    1         0.4733225762E-01      0.7741858195E-01
          0                 5           2             7    6     1       0.2577878014E-02       7    6    1         0.1432578552E+00      0.1458487803E+00
          0                 6           2             7    6     1       0.2440253204E-02       7    6    1         0.1355730329E+00      0.1361715320E+00
          0                 7           2             7    6     1       0.2451425345E-02       7    6    1         0.1361873852E+00      0.1363552603E+00
          0                 8           2             7    6     1       0.2450537434E-02       7    6    1         0.1361358416E+00      0.1362178365E+00
          0                 9           2             7    6     1       0.2450629507E-02       7    6    1         0.1361395646E+00      0.1362042978E+00
          0                10           2             7    6     1       0.2450622494E-02       7    6    1         0.1361379048E+00      0.1361991689E+00
                                                   Max.-Head-Change                         Max.-Flux-Residual
  Residual-Control   Outer-Iter.   Inner-Iter.     Column Row Layer    Maximum-Head-Change  Column Row Layer    Maximum-Flux-Residual          L2-NORM 
          0                11           2             7    6     1       0.2450622947E-02       7    6    1         0.1361366764E+00      0.1361971969E+00
          0                12           2             7    6     1       0.2450622775E-02       7    6    1         0.1361354136E+00      0.1361958040E+00
          0                13           2             7    6     1       0.2450605506E-02       7    6    1         0.1361331998E+00      0.1361935518E+00
          0                14           2             7    6     1       0.2450623951E-02       7    6    1         0.1361329697E+00      0.1361932919E+00
          0                15           2             7    6     1       0.2450622379E-02       7    6    1         0.1361316268E+00      0.1361919454E+00
          0                16           2             7    6     1       0.2450622414E-02       7    6    1         0.1361303732E+00      0.1361906766E+00
          0                17           2             7    6     1       0.2450622322E-02       7    6    1         0.1361291125E+00      0.1361893855E+00
          0                18           2             7    6     1       0.2450622240E-02       7    6    1         0.1361278523E+00      0.1361881282E+00
          0                19           2             7    6     1       0.2450622158E-02       7    6    1         0.1361265921E+00      0.1361868430E+00
          0                20           2             7    6     1       0.2450622075E-02       7    6    1         0.1361253320E+00      0.1361855919E+00
                                                   Max.-Head-Change                         Max.-Flux-Residual
  Residual-Control   Outer-Iter.   Inner-Iter.     Column Row Layer    Maximum-Head-Change  Column Row Layer    Maximum-Flux-Residual          L2-NORM 
          0                21           2             7    6     1       0.2450621993E-02       7    6    1         0.1361240719E+00      0.1361842911E+00
          0                22           2             7    6     1       0.2450621911E-02       7    6    1         0.1361228118E+00      0.1361830388E+00
          0                23           2             7    6     1       0.2450621830E-02       7    6    1         0.1361215517E+00      0.1361817599E+00
          0                24           2             7    6     1       0.2450621747E-02       7    6    1         0.1361202917E+00      0.1361804831E+00
          0                25           2             7    6     1       0.2450621665E-02       7    6    1         0.1361190317E+00      0.1361792098E+00
          0                26           2             7    6     1       0.2450621583E-02       7    6    1         0.1361177717E+00      0.1361779317E+00
          0                27           2             7    6     1       0.2450621502E-02       7    6    1         0.1361165117E+00      0.1361766579E+00
          0                28           2             7    6     1       0.2450621420E-02       7    6    1         0.1361152517E+00      0.1361753847E+00
          0                29           2             7    6     1       0.2450604171E-02       7    6    1         0.1361130381E+00      0.1361731615E+00
          0                30           2             7    6     1       0.2450622632E-02       7    6    1         0.1361128085E+00      0.1361729306E+00
                                                   Max.-Head-Change                         Max.-Flux-Residual
  Residual-Control   Outer-Iter.   Inner-Iter.     Column Row Layer    Maximum-Head-Change  Column Row Layer    Maximum-Flux-Residual          L2-NORM 
          0                31           2             7    6     1       0.2450621062E-02       7    6    1         0.1361114659E+00      0.1361715537E+00
          0                32           2             7    6     1       0.2450621100E-02       7    6    1         0.1361102127E+00      0.1361703395E+00
          0                33           2             7    6     1       0.2450621009E-02       7    6    1         0.1361089523E+00      0.1361689841E+00
          0                34           2             7    6     1       0.2450620928E-02       7    6    1         0.1361076925E+00      0.1361677530E+00
          0                35           2             7    6     1       0.2450620846E-02       7    6    1         0.1361064327E+00      0.1361664916E+00
          0                36           2             7    6     1       0.2450620314E-02       7    6    1         0.1361051652E+00      0.1361651885E+00
          0                37           2             7    6     1       0.2450619792E-02       7    6    1         0.1361039022E+00      0.1361639113E+00
          0                38           2             7    6     1       0.2450619333E-02       7    6    1         0.1361026428E+00      0.1361626542E+00
          0                39           2             7    6     1       0.2450618869E-02       7    6    1         0.1361013830E+00      0.1361613729E+00
          0                40           2             7    6     1       0.2450618406E-02       7    6    1         0.1361001234E+00      0.1361601128E+00
                                                   Max.-Head-Change                         Max.-Flux-Residual
  Residual-Control   Outer-Iter.   Inner-Iter.     Column Row Layer    Maximum-Head-Change  Column Row Layer    Maximum-Flux-Residual          L2-NORM 
          0                41           2             7    6     1       0.2450617942E-02       7    6    1         0.1360988637E+00      0.1361588208E+00
          0                42           2             7    6     1       0.2450617479E-02       7    6    1         0.1360976041E+00      0.1361575538E+00
          0                43           2             7    6     1       0.2450617016E-02       7    6    1         0.1360963445E+00      0.1361562628E+00
          0                44           2             7    6     1       0.2450616552E-02       7    6    1         0.1360950849E+00      0.1361550616E+00
          0                45           2             7    6     1       0.2450616088E-02       7    6    1         0.1360938254E+00      0.1361537200E+00
          0                46           2             7    6     1       0.2450615625E-02       7    6    1         0.1360925658E+00      0.1361524293E+00
          0                47           2             7    6     1       0.2450615161E-02       7    6    1         0.1360913063E+00      0.1361512438E+00
          0                48           2             7    6     1       0.2450614698E-02       7    6    1         0.1360900469E+00      0.1361499044E+00
          0                49           2             7    6     1       0.2450614234E-02       7    6    1         0.1360887874E+00      0.1361486561E+00
          0                50           2             7    6     1       0.2450613771E-02       7    6    1         0.1360875280E+00      0.1361473655E+00
                                                   Max.-Head-Change                         Max.-Flux-Residual
  Residual-Control   Outer-Iter.   Inner-Iter.     Column Row Layer    Maximum-Head-Change  Column Row Layer    Maximum-Flux-Residual          L2-NORM 
          0                51           2             7    6     1       0.2450613308E-02       7    6    1         0.1360862685E+00      0.1361461287E+00
          0                52           2             7    6     1       0.2450612844E-02       7    6    1         0.1360850091E+00      0.1361448302E+00
          0                53           2             7    6     1       0.2450612381E-02       7    6    1         0.1360837498E+00      0.1361435760E+00
          0                54           2             7    6     1       0.2450611917E-02       7    6    1         0.1360824904E+00      0.1361422793E+00
          0                55           2             7    6     1       0.2450611454E-02       7    6    1         0.1360812311E+00      0.1361410275E+00
          0                56           2             7    6     1       0.2450610990E-02       7    6    1         0.1360799718E+00      0.1361397354E+00
          0                57           2             7    6     1       0.2450610527E-02       7    6    1         0.1360787125E+00      0.1361384873E+00
          0                58           2             7    6     1       0.2450610063E-02       7    6    1         0.1360774533E+00      0.1361372135E+00
          0                59           2             7    6     1       0.2450609599E-02       7    6    1         0.1360761940E+00      0.1361359377E+00
          0                60           2             7    6     1       0.2450609136E-02       7    6    1         0.1360749349E+00      0.1361346421E+00
                                                   Max.-Head-Change                         Max.-Flux-Residual
  Residual-Control   Outer-Iter.   Inner-Iter.     Column Row Layer    Maximum-Head-Change  Column Row Layer    Maximum-Flux-Residual          L2-NORM 
          0                61           2             7    6     1       0.2450608673E-02       7    6    1         0.1360736757E+00      0.1361333966E+00
          0                62           2             7    6     1       0.2450608209E-02       7    6    1         0.1360724165E+00      0.1361321280E+00
          0                63           2             7    6     1       0.2450607746E-02       7    6    1         0.1360711574E+00      0.1361308386E+00
          0                64           2             7    6     1       0.2450607282E-02       7    6    1         0.1360698983E+00      0.1361295671E+00
          0                65           2             7    6     1       0.2450606819E-02       7    6    1         0.1360686392E+00      0.1361283131E+00
          0                66           2             7    6     1       0.2450606355E-02       7    6    1         0.1360673801E+00      0.1361270355E+00
          0                67           2             7    6     1       0.2450605892E-02       7    6    1         0.1360661211E+00      0.1361257773E+00
          0                68           2             7    6     1       0.2450605428E-02       7    6    1         0.1360648621E+00      0.1361244769E+00
          0                69           2             7    6     1       0.2450604965E-02       7    6    1         0.1360636031E+00      0.1361232316E+00
          0                70           2             7    6     1       0.2450604501E-02       7    6    1         0.1360623441E+00      0.1361219419E+00
                                                   Max.-Head-Change                         Max.-Flux-Residual
  Residual-Control   Outer-Iter.   Inner-Iter.     Column Row Layer    Maximum-Head-Change  Column Row Layer    Maximum-Flux-Residual          L2-NORM 
          0                71           2             7    6     1       0.2450604038E-02       7    6    1         0.1360610851E+00      0.1361207012E+00
          0                72           2             7    6     1       0.2450603575E-02       7    6    1         0.1360598262E+00      0.1361193941E+00
          0                73           2             7    6     1       0.2450603111E-02       7    6    1         0.1360585673E+00      0.1361181425E+00
          0                74           2             7    6     1       0.2450602647E-02       7    6    1         0.1360573084E+00      0.1361168652E+00
          0                75           2             7    6     1       0.2450602185E-02       7    6    1         0.1360560496E+00      0.1361156102E+00
          0                76           2             7    6     1       0.2450601720E-02       7    6    1         0.1360547907E+00      0.1361143365E+00
          0                77           2             7    6     1       0.2450601257E-02       7    6    1         0.1360535319E+00      0.1361130463E+00
          0                78           2             7    6     1       0.2450600793E-02       7    6    1         0.1360522731E+00      0.1361118136E+00
          0                79           2             7    6     1       0.2450600330E-02       7    6    1         0.1360510144E+00      0.1361656996E+00
          0                80           2             7    6     1       0.2450599867E-02       7    6    1         0.1360497556E+00      0.1360755262E+00
                                                   Max.-Head-Change                         Max.-Flux-Residual
  Residual-Control   Outer-Iter.   Inner-Iter.     Column Row Layer    Maximum-Head-Change  Column Row Layer    Maximum-Flux-Residual          L2-NORM 
          0                81           2             7    6     1       0.2450599403E-02       7    6    1         0.1360484969E+00      0.1361118198E+00
          0                82           2             7    6     1       0.2450598940E-02       7    6    1         0.1360472382E+00      0.1361064210E+00
          0                83           2             7    6     1       0.2450598476E-02       7    6    1         0.1360459796E+00      0.1361054548E+00
          0                84           2             7    6     1       0.2450598013E-02       7    6    1         0.1360447209E+00      0.1361041957E+00
          0                85           2             7    6     1       0.2450597549E-02       7    6    1         0.1360434623E+00      0.1361029175E+00
          0                86           2             7    6     1       0.2450597086E-02       7    6    1         0.1360422037E+00      0.1361016141E+00
          0                87           2             7    6     1       0.2450596622E-02       7    6    1         0.1360409451E+00      0.1361003789E+00
          0                88           2             7    6     1       0.2450596159E-02       7    6    1         0.1360396866E+00      0.1360991012E+00
          0                89           2             7    6     1       0.2450595695E-02       7    6    1         0.1360384280E+00      0.1360978171E+00
          0                90           2             7    6     1       0.2450595232E-02       7    6    1         0.1360371695E+00      0.1360965728E+00
                                                   Max.-Head-Change                         Max.-Flux-Residual
  Residual-Control   Outer-Iter.   Inner-Iter.     Column Row Layer    Maximum-Head-Change  Column Row Layer    Maximum-Flux-Residual          L2-NORM 
          0                91           2             7    6     1       0.2450594768E-02       7    6    1         0.1360359110E+00      0.1360953153E+00
          0                92           2             7    6     1       0.2450594305E-02       7    6    1         0.1360346526E+00      0.1360940200E+00
          0                93           2             7    6     1       0.2450593841E-02       7    6    1         0.1360333941E+00      0.1360927815E+00
          0                94           2             7    6     1       0.2450593378E-02       7    6    1         0.1360321357E+00      0.1360913370E+00
          0                95           2             7    6     1       0.2450592915E-02       7    6    1         0.1360308773E+00      0.1360903800E+00
          0                96           2             7    6     1       0.2450592451E-02       7    6    1         0.1360296190E+00      0.1360889832E+00
          0                97           2             7    6     1       0.2450591987E-02       7    6    1         0.1360283606E+00      0.1360876740E+00
          0                98           2             7    6     1       0.2450591524E-02       7    6    1         0.1360271023E+00      0.1360864404E+00
          0                99           2             7    6     1       0.2450591061E-02       7    6    1         0.1360258440E+00      0.1360851734E+00
          0               100           2             7    6     1       0.2450590597E-02       7    6    1         0.1360245858E+00      0.1360838822E+00
                                                   Max.-Head-Change                         Max.-Flux-Residual
  Residual-Control   Outer-Iter.   Inner-Iter.     Column Row Layer    Maximum-Head-Change  Column Row Layer    Maximum-Flux-Residual          L2-NORM 
          0               101           2             7    6     1       0.2450590134E-02       7    6    1         0.1360233275E+00      0.1360826289E+00
          0               102           2             7    6     1       0.2450589670E-02       7    6    1         0.1360220693E+00      0.1360813690E+00
          0               103           2             7    6     1       0.2450589207E-02       7    6    1         0.1360208111E+00      0.1360801255E+00
          0               104           2             7    6     1       0.3063870272E-02       7    6    1         0.1700658675E+00      0.1701132717E+00
          0               105           2             7    6     1       0.3188471649E-02       7    6    1         0.1769764003E+00      0.1770233149E+00
          0               106           2             7    6     1       0.3210434432E-02       7    6    1         0.1781921029E+00      0.1782392919E+00
          0               107           2             7    6     1       0.3214309670E-02       7    6    1         0.1784050987E+00      0.1784523515E+00
          0               108           2             7    6     1       0.3214993561E-02       7    6    1         0.1784413316E+00      0.1784886483E+00
          0               109           2             7    6     1       0.3215113690E-02       7    6    1         0.1784463659E+00      0.1784936416E+00
          0               110           2             7    6     1       0.2701017069E-02       7    6    1         0.1499062295E+00      0.1499625187E+00
                                                   Max.-Head-Change                         Max.-Flux-Residual
  Residual-Control   Outer-Iter.   Inner-Iter.     Column Row Layer    Maximum-Head-Change  Column Row Layer    Maximum-Flux-Residual          L2-NORM 
          0               111           2             7    6     1       0.4756188044E-03       7    6    1         0.2637400194E-01      0.2668383722E-01
          0               112           1             7    6     1       0.8385255954E-04       7    6    1         0.4645755541E-02      0.6064728972E-02
          0               113           1             2   13     1      -0.5833027837E-04       2   13    1        -0.3359495025E-02      0.3967964743E-02
          0               114           1             2   13     1      -0.5830080268E-04       2   13    1        -0.3357351922E-02      0.3882891647E-02
          0               115           1             2   13     1      -0.5830080731E-04       2   13    1        -0.3357423943E-02      0.3880581732E-02
          0               116           1             2   13     1      -0.5829167469E-04       2   13    1        -0.3356784651E-02      0.3880476569E-02
          0               117           1             2   13     1      -0.5828283886E-04       2   13    1        -0.3356169721E-02      0.3880526026E-02
          0               118           1             2   13     1      -0.5804866959E-04       2   13    1        -0.3342534556E-02      0.3869467618E-02
          0               119           1             2   13     1      -0.5848780519E-04       2   13    1        -0.3367816204E-02      0.3890773148E-02
          0               120           1             2   13     1      -0.5821738905E-04       2   13    1        -0.3352061790E-02      0.3879721560E-02
                                                   Max.-Head-Change                         Max.-Flux-Residual
  Residual-Control   Outer-Iter.   Inner-Iter.     Column Row Layer    Maximum-Head-Change  Column Row Layer    Maximum-Flux-Residual          L2-NORM 
          0               121           1             2   13     1      -0.5823838048E-04       2   13    1        -0.3353342582E-02      0.3880342687E-02
          0               122           1             2   13     1      -0.5821209377E-04       2   13    1        -0.3351551542E-02      0.3879741532E-02
          0               123           1             2   13     1      -0.5820465276E-04       2   13    1        -0.3351007572E-02      0.3881139545E-02
          0               124           1             2   13     1      -0.5819753898E-04       2   13    1        -0.3350533319E-02      0.3878450160E-02
          0               125           1             2   13     1      -0.5817045072E-04       2   13    1        -0.3348687235E-02      0.3879201923E-02
          0               126           1             2   13     1      -0.5816330389E-04       2   13    1        -0.3348328472E-02      0.3879825173E-02
          0               127           1             2   13     1      -0.5815845775E-04       2   13    1        -0.3348091175E-02      0.3880422720E-02
          0               128           1             2   13     1      -0.5814658859E-04       2   13    1        -0.3347144956E-02      0.3880032014E-02
          0               129           1             2   13     1      -0.5813118257E-04       2   13    1        -0.3346158445E-02      0.3879926571E-02
          0               130           1             2   13     1      -0.5811424900E-04       2   13    1        -0.3345069135E-02      0.3880293098E-02
                                                   Max.-Head-Change                         Max.-Flux-Residual
  Residual-Control   Outer-Iter.   Inner-Iter.     Column Row Layer    Maximum-Head-Change  Column Row Layer    Maximum-Flux-Residual          L2-NORM 
          0               131           1             2   13     1      -0.5810183126E-04       2   13    1        -0.3344251953E-02      0.3880136485E-02
          0               132           1             2   13     1      -0.5809000327E-04       2   13    1        -0.3343316458E-02      0.3879964258E-02
          0               133           1             2   13     1      -0.5808377328E-04       2   13    1        -0.3343154287E-02      0.3881364066E-02
          0               134           1             2   13     1      -0.1061950007E-04       2   13    1        -0.6111498788E-03      0.7664980229E-03
          0               135           1             2   13     1       0.8528239395E-06       2   13    1         0.4970058762E-04      0.8000945317E-04

    ------------------------------------------------
       NWT REQUIRED          135 OUTER ITERATIONS 
       AND A TOTAL OF        246 INNER ITERATIONS.
    ------------------------------------------------

 NO OUTPUT CONTROL FOR STRESS PERIOD   19   TIME STEP   30



 STREAM LISTING     PERIOD     19   STEP       30

 LAYER ROW COL. STREAM  RCH.  FLOW INTO     FLOW TO   FLOW OUT OF   OVRLND.     DIRECT     STREAM       STREAM     STREAM     STREAM   STREAMBED  STREAMBED
                SEG.NO.  NO.  STRM. RCH.    AQUIFER    STRM. RCH.    RUNOFF     PRECIP       ET          HEAD       DEPTH      WIDTH   CONDCTNC.   GRADIENT

   1    1    1     1     1    2.2886E+01  2.3519E-08   2.2886E+01  0.000E+00  0.000E+00  0.000E+00  1.09419E+03  1.146E+00  1.261E+01  5.673E-09  1.382E+00
   1    2    2     1     2    2.2886E+01  3.6536E-09   2.2886E+01  0.000E+00  0.000E+00  0.000E+00  1.08920E+03  1.145E+00  1.259E+01  8.815E-10  1.382E+00
   1    3    3     1     3    2.2886E+01  3.1333E-09   2.2886E+01  0.000E+00  0.000E+00  0.000E+00  1.08356E+03  1.145E+00  1.260E+01  7.559E-10  1.382E+00
   1    3    4     1     4    2.2886E+01  2.8990E-09   2.2886E+01  0.000E+00  0.000E+00  0.000E+00  1.07855E+03  1.145E+00  1.260E+01  6.993E-10  1.382E+00
   1    4    5     2     1    2.0886E+01  3.1817E-01   2.0568E+01  0.000E+00  0.000E+00  0.000E+00  1.07301E+03  1.079E+00  1.200E+01  7.800E-02  1.360E+00
   1    5    6     2     2    2.0568E+01  2.4422E-01   2.0323E+01  0.000E+00  0.000E+00  0.000E+00  1.06758E+03  1.070E+00  1.200E+01  6.000E-02  1.357E+00
   1    6    6     2     3    2.0323E+01  2.4376E-01   2.0080E+01  0.000E+00  0.000E+00  0.000E+00  1.06286E+03  1.063E+00  1.200E+01  6.000E-02  1.354E+00
   1    7    6     2     4    2.0080E+01  2.4329E-01   1.9836E+01  0.000E+00  0.000E+00  0.000E+00  1.05813E+03  1.055E+00  1.200E+01  6.000E-02  1.352E+00
   1    8    6     2     5    1.9836E+01  2.4283E-01   1.9594E+01  0.000E+00  0.000E+00  0.000E+00  1.05341E+03  1.047E+00  1.200E+01  6.000E-02  1.349E+00
   1    3    5     3     1    2.0000E+00  2.8252E-01   1.7175E+00  0.000E+00  0.000E+00  0.000E+00  1.07555E+03  1.909E+00  9.636E+00  7.227E-02  1.955E+00
   1    3    6     3     2    1.7175E+00  2.4905E-01   1.4684E+00  0.000E+00  0.000E+00  0.000E+00  1.07264E+03  1.727E+00  8.909E+00  6.682E-02  1.864E+00
   1    3    7     3     3    1.4684E+00  1.9718E-01   1.2712E+00  0.000E+00  0.000E+00  0.000E+00  1.06987E+03  1.555E+00  8.218E+00  5.547E-02  1.777E+00
   1    4    8     3     4    1.2712E+00  2.2567E-01   1.0456E+00  0.000E+00  0.000E+00  0.000E+00  1.06682E+03  1.364E+00  7.455E+00  6.709E-02  1.682E+00
   1    5    8     3     5    1.0456E+00  1.5790E-01   8.8768E-01  0.000E+00  0.000E+00  0.000E+00  1.06362E+03  1.164E+00  6.655E+00  4.991E-02  1.582E+00
   1    6    8     3     6    8.8768E-01  5.5980E-02   8.3170E-01  0.000E+00  0.000E+00  0.000E+00  1.06158E+03  1.036E+00  6.145E+00  1.844E-02  1.518E+00
   1    5   10     4     1    1.0000E+01  9.0919E-02   9.9091E+00  0.000E+00  0.000E+00  0.000E+00  1.07836E+03  6.368E-01  1.000E+01  2.500E-02  1.212E+00
   1    5    9     4     2    9.9091E+00  1.8158E-01   9.7275E+00  0.000E+00  0.000E+00  0.000E+00  1.07154E+03  6.315E-01  1.000E+01  5.000E-02  1.211E+00
   1    6    8     4     3    9.7275E+00  1.2689E-01   9.6006E+00  0.000E+00  0.000E+00  0.000E+00  1.06381E+03  6.256E-01  1.000E+01  3.500E-02  1.209E+00
   1    6    8     5     1    1.0432E+01  2.2686E-09   1.0432E+01  0.000E+00  0.000E+00  0.000E+00  1.05868E+03  6.790E-01  1.542E+01  6.166E-10  1.226E+00
   1    7    7     5     2    1.0432E+01  2.8306E-09   1.0432E+01  0.000E+00  0.000E+00  0.000E+00  1.05418E+03  6.784E-01  1.539E+01  7.695E-10  1.226E+00
   1    8    7     5     3    1.0432E+01  1.9868E-09   1.0432E+01  0.000E+00  0.000E+00  0.000E+00  1.04993E+03  6.794E-01  1.543E+01  5.400E-10  1.226E+00
   1    8    6     5     4    1.0432E+01  1.4217E-09   1.0432E+01  0.000E+00  0.000E+00  0.000E+00  1.04693E+03  6.800E-01  1.545E+01  3.863E-10  1.227E+00
   1    9    6     6     1    1.0432E+01  2.2309E-01   1.0209E+01  0.000E+00  0.000E+00  0.000E+00  1.04345E+03  7.181E-01  1.200E+01  6.000E-02  1.239E+00
   1   10    7     6     2    1.0209E+01  2.2253E-01   9.9867E+00  0.000E+00  0.000E+00  0.000E+00  1.03889E+03  7.088E-01  1.200E+01  6.000E-02  1.236E+00
   1   11    7     6     3    9.9867E+00  2.2196E-01   9.7647E+00  0.000E+00  0.000E+00  0.000E+00  1.03434E+03  6.994E-01  1.200E+01  6.000E-02  1.233E+00
   1   12    7     6     4    9.7647E+00  2.2139E-01   9.5433E+00  0.000E+00  0.000E+00  0.000E+00  1.02978E+03  6.899E-01  1.200E+01  6.000E-02  1.230E+00
   1   13    7     6     5    9.5433E+00  8.8398E-02   9.4549E+00  0.000E+00  0.000E+00  0.000E+00  1.02659E+03  6.833E-01  1.200E+01  2.400E-02  1.228E+00
   1   14    9     7     1    1.5000E+02  2.9539E-08   1.5000E+02  0.000E+00  0.000E+00  0.000E+00  1.03986E+03  2.283E+00  5.528E+01  5.591E-09  1.761E+00
   1   13    8     7     2    1.5000E+02  3.2486E-14   1.5000E+02  0.000E+00  0.000E+00  0.000E+00  1.03478E+03  2.283E+00  5.527E+01  6.150E-15  1.761E+00
   1   13    7     7     3    1.5000E+02  2.9539E-08   1.5000E+02  0.000E+00  0.000E+00  0.000E+00  1.02970E+03  2.283E+00  5.528E+01  5.591E-09  1.761E+00
   1   13    6     8     1    1.5945E+02  2.4941E-14   1.5945E+02  0.000E+00  0.000E+00  0.000E+00  1.02475E+03  2.874E+00  4.167E+01  4.246E-15  1.958E+00
   1   13    5     8     2    1.5945E+02  2.4941E-10   1.5945E+02  0.000E+00  0.000E+00  0.000E+00  1.01850E+03  2.874E+00  4.167E+01  4.246E-11  1.958E+00
   1   13    4     8     3    1.5945E+02  1.5923E-08   1.5945E+02  0.000E+00  0.000E+00  0.000E+00  1.01225E+03  2.877E+00  4.171E+01  4.251E-09  1.249E+00
   1   13    3     8     4    1.5945E+02  1.9043E-06   1.5945E+02  0.000E+00  0.000E+00  0.000E+00  1.00601E+03  2.882E+00  4.178E+01  4.258E-06  1.491E-01
   1   13    2     8     5    1.5945E+02 -1.5747E+00   1.6103E+02  0.000E+00  0.000E+00  0.000E+00  9.99763E+02  2.887E+00  4.187E+01  4.267E+00 -1.230E-01
   1   13    1     8     6    1.6103E+02 -1.6508E+00   1.6268E+02  0.000E+00  0.000E+00  0.000E+00  9.94773E+02  2.898E+00  4.203E+01  2.570E+00 -2.141E-01
   1    6    8     9     1    1.9594E+01  0.0000E+00   1.9594E+01  0.000E+00  0.000E+00  0.000E+00  1.07931E+03  8.068E-01  4.000E+00  0.000E+00  1.269E+00





UNSATURATED ZONE PACKAGE VOLUMETRIC BUDGET FOR  TIME STEP    30 STRESS PERIOD   19
  ------------------------------------------------------------------------------



     CUMULATIVE VOLUMES      L**3       RATES FOR THIS TIME STEP      L**3/T
     ------------------                 ------------------------

           IN:                                      IN:
           ---                                      ---
        INFILTRATION =    93527936.5322          INFILTRATION =          20.4411

          OUT:                                     OUT:
          ----                                     ----
              UZF ET =   584750901.1593                UZF ET =           5.1186
        UZF RECHARGE =  1257091164.9137          UZF RECHARGE =          24.2597

            IN - OUT = -1748314129.5408              IN - OUT =          -8.9372

          STORAGE:                                 STORAGE:
          --------                                 --------
      STORAGE CHANGE = -1748302721.0594        STORAGE CHANGE =          -8.9372

 PERCENT DISCREPANCY IS DIFFERENCE BETWEEN IN-OUT MINUS CHANGE IN STORAGE
 DIVIDED BY THE AVERAGE OF IN AND OUT TIMES 100

 PERCENT DISCREPANCY =          -0.00     PERCENT DISCREPANCY =           0.00






1
  VOLUMETRIC BUDGET FOR ENTIRE MODEL AT END OF TIME STEP   30, STRESS PERIOD  19
  ------------------------------------------------------------------------------

     CUMULATIVE VOLUMES      L**3       RATES FOR THIS TIME STEP      L**3/T
     ------------------                 ------------------------

           IN:                                      IN:
           ---                                      ---
             STORAGE =    24912862.0000               STORAGE =           1.2310
       CONSTANT HEAD =           0.0000         CONSTANT HEAD =           0.0000
               WELLS =           0.0000                 WELLS =           0.0000
     HEAD DEP BOUNDS =    51449888.0000       HEAD DEP BOUNDS =           0.9876
      STREAM LEAKAGE =   199359744.0000        STREAM LEAKAGE =           3.8373
        UZF RECHARGE =  1257091456.0000          UZF RECHARGE =          24.2597
               GW ET =           0.0000                 GW ET =           0.0000
     SURFACE LEAKAGE =           0.0000       SURFACE LEAKAGE =           0.0000

            TOTAL IN =  1532813952.0000              TOTAL IN =          30.3156

          OUT:                                     OUT:
          ----                                     ----
             STORAGE =  1337507584.0000               STORAGE =          24.6095
       CONSTANT HEAD =           0.0000         CONSTANT HEAD =           0.0000
               WELLS =     4465322.5000                 WELLS =           0.0000
     HEAD DEP BOUNDS =    14256486.0000       HEAD DEP BOUNDS =           0.2818
      STREAM LEAKAGE =   130079376.0000        STREAM LEAKAGE =           3.2255
        UZF RECHARGE =           0.0000          UZF RECHARGE =           0.0000
               GW ET =    46349980.0000                 GW ET =           2.1989
     SURFACE LEAKAGE =           0.0000       SURFACE LEAKAGE =           0.0000

           TOTAL OUT =  1532658688.0000             TOTAL OUT =          30.3157

            IN - OUT =      155264.0000              IN - OUT =      -2.4796E-05

 PERCENT DISCREPANCY =           0.01     PERCENT DISCREPANCY =          -0.00






         TIME SUMMARY AT END OF TIME STEP   30 IN STRESS PERIOD   19
                    SECONDS     MINUTES      HOURS       DAYS        YEARS
                    -----------------------------------------------------------
   TIME STEP LENGTH  87600.      1460.0      24.333      1.0139     2.77588E-03
 STRESS PERIOD TIME 2.62800E+06  43800.      730.00      30.417     8.32763E-02
         TOTAL TIME 4.99320E+07 8.32200E+05  13870.      577.92      1.5822    
1
1
                            STRESS PERIOD NO.   20, LENGTH =   2628000.    
                            -----------------------------------------------

                              NUMBER OF TIME STEPS =    30

                               MULTIPLIER FOR DELT =     1.000

                            INITIAL TIME STEP SIZE =   87600.00    

 WELL NO.  LAYER   ROW   COL   STRESS RATE         
 --------------------------------------------------
      1      1      6      4       0.000    
      2      1      6      7       0.000    
      3      1      7      4       0.000    
      4      1      7      5       0.000    
      5      1      8      4       0.000    
      6      1      8      5       0.000    
      7      1      9      4       0.000    
      8      1      9      5       0.000    
      9      1     10      4       0.000    
     10      1     10      5       0.000    

     10 WELLS

 REUSING NON-PARAMETER GHB CELLS FROM LAST STRESS PERIOD

      2 GHB CELLS

 REUSING STREAM SEGMENT DATA FROM LAST STRESS PERIOD



            AREAL INFILTRATION RATE
 READING ON UNIT   19 WITH FORMAT: (10F4.0)            

            1           2           3           4           5           6           7           8           9          10
 ........................................................................................................................
   1   1.0000E-10  2.0000E-10   0.000       0.000       0.000       0.000       0.000       0.000       0.000       0.000    
   2   2.0000E-10  1.0000E-10  2.0000E-10   0.000       0.000      8.0000E-10  8.0000E-10  5.0000E-10   0.000       0.000    
   3    0.000      5.0000E-10  1.0000E-10  1.0000E-10  8.0000E-10  8.0000E-10  5.0000E-10  5.0000E-10   0.000       0.000    
   4   8.0000E-10  5.0000E-10  1.0000E-10  1.0000E-10  1.0000E-10  1.0000E-10  1.0000E-10  1.0000E-10  2.0000E-10   0.000    
   5   8.0000E-10  5.0000E-10  1.0000E-10  1.0000E-10  1.0000E-10  1.0000E-10  1.0000E-10  1.0000E-10  1.0000E-10  1.0000E-10
   6   8.0000E-10  5.0000E-10  5.0000E-10  2.0000E-10  2.0000E-10  1.0000E-10  1.0000E-10  1.0000E-10  1.0000E-10  5.0000E-10
   7   8.0000E-10  5.0000E-10  5.0000E-10  2.0000E-10  2.0000E-10  1.0000E-10  1.0000E-10  2.0000E-10  2.0000E-10   0.000    
   8    0.000      5.0000E-10  5.0000E-10  2.0000E-10  2.0000E-10  1.0000E-10  1.0000E-10  2.0000E-10  5.0000E-10   0.000    
   9    0.000      5.0000E-10  5.0000E-10  2.0000E-10  2.0000E-10  1.0000E-10  1.0000E-10  2.0000E-10  5.0000E-10   0.000    
  10    0.000      5.0000E-10  5.0000E-10  2.0000E-10  2.0000E-10  1.0000E-10  1.0000E-10  2.0000E-10  5.0000E-10  8.0000E-10
  11    0.000      1.0000E-10  1.0000E-10  1.0000E-10  1.0000E-10  1.0000E-10  1.0000E-10  2.0000E-10  5.0000E-10   0.000    
  12   1.0000E-10  1.0000E-10  1.0000E-10  1.0000E-10  1.0000E-10  1.0000E-10  1.0000E-10  1.0000E-10  2.0000E-10   0.000    
  13   1.0000E-10  1.0000E-10  2.0000E-10  2.0000E-10  2.0000E-10  2.0000E-10  2.0000E-10  1.0000E-10  1.0000E-10   0.000    
  14    0.000      2.0000E-10  5.0000E-10  5.0000E-10  5.0000E-10  5.0000E-10  5.0000E-10  2.0000E-10  1.0000E-10   0.000    
  15    0.000       0.000      8.0000E-10  8.0000E-10  8.0000E-10  8.0000E-10   0.000       0.000       0.000       0.000    

                  ET RATE =  6.000000E-08

 USING ET EXTINCTION DEPTH FROM PREVIOUS STRESS PERIOD. CURRENT PERIOD IS:      20

 USING EXTINCTION WATER CONTENT FROM PREVIOUS STRESS PERIOD. CURRENT PERIOD IS:      20
 
 SOLVING FOR HEAD 
                                                   Max.-Head-Change                         Max.-Flux-Residual
  Residual-Control   Outer-Iter.   Inner-Iter.     Column Row Layer    Maximum-Head-Change  Column Row Layer    Maximum-Flux-Residual          L2-NORM 
          0                 1           2             1   13     1      -0.1982945888E-01       1   13    1        -0.1079182114E+01      0.2472754614E+01
          0                 2           2             7    6     1      -0.2835744164E+00       7    6    1        -0.1561660287E+02      0.1562252235E+02
          0                 3           2             7    6     1       0.2466959996E-01       7    6    1         0.1372742716E+01      0.1382485579E+01
          0                 4           2             7    6     1       0.3070762824E-02       7    6    1         0.1707572810E+00      0.1814414542E+00
          0                 5           2             7    6     1       0.4806081561E-02       7    6    1         0.2670467741E+00      0.2685195909E+00
          0                 6           2             7    6     1       0.4667910277E-02       7    6    1         0.2593296773E+00      0.2597252151E+00
          0                 7           2             7    6     1       0.4679129471E-02       7    6    1         0.2599453779E+00      0.2601168075E+00
          0                 8           2             7    6     1       0.4678255347E-02       7    6    1         0.2598934423E+00      0.2600200379E+00
          0                 9           2             7    6     1       0.4678346195E-02       7    6    1         0.2598959591E+00      0.2600135467E+00
          0                10           2             7    6     1       0.4678321903E-02       7    6    1         0.2598922048E+00      0.2600078810E+00
                                                   Max.-Head-Change                         Max.-Flux-Residual
  Residual-Control   Outer-Iter.   Inner-Iter.     Column Row Layer    Maximum-Head-Change  Column Row Layer    Maximum-Flux-Residual          L2-NORM 
          0                11           2             7    6     1       0.4678323509E-02       7    6    1         0.2598899068E+00      0.2600053199E+00
          0                12           2             7    6     1       0.4678323010E-02       7    6    1         0.2598874921E+00      0.2600026963E+00
          0                13           2             7    6     1       0.4678322700E-02       7    6    1         0.2598850868E+00      0.2600002734E+00
          0                14           2             7    6     1       0.4678322389E-02       7    6    1         0.2598826809E+00      0.2599978102E+00
          0                15           2             7    6     1       0.4678322085E-02       7    6    1         0.2598802750E+00      0.2599953909E+00
          0                16           2             7    6     1       0.4678321785E-02       7    6    1         0.2598778692E+00      0.2599929269E+00
          0                17           2             7    6     1       0.4678321485E-02       7    6    1         0.2598754634E+00      0.2599905053E+00
          0                18           2             7    6     1       0.4678320717E-02       7    6    1         0.2598730541E+00      0.2599880585E+00
          0                19           2             7    6     1       0.4678318340E-02       7    6    1         0.2598706099E+00      0.2599855956E+00
          0                20           2             7    6     1       0.4678316708E-02       7    6    1         0.2598682073E+00      0.2599831433E+00
                                                   Max.-Head-Change                         Max.-Flux-Residual
  Residual-Control   Outer-Iter.   Inner-Iter.     Column Row Layer    Maximum-Head-Change  Column Row Layer    Maximum-Flux-Residual          L2-NORM 
          0                21           2             7    6     1       0.4678315015E-02       7    6    1         0.2598658014E+00      0.2599807280E+00
          0                22           2             7    6     1       0.4678313326E-02       7    6    1         0.2598633959E+00      0.2599782174E+00
          0                23           2             7    6     1       0.4678311638E-02       7    6    1         0.2598609904E+00      0.2599759480E+00
          0                24           2             7    6     1       0.4678309950E-02       7    6    1         0.2598585849E+00      0.2599733785E+00
          0                25           2             7    6     1       0.4678308261E-02       7    6    1         0.2598561795E+00      0.2599710470E+00
          0                26           2             7    6     1       0.4678306573E-02       7    6    1         0.2598537741E+00      0.2599685867E+00
          0                27           2             7    6     1       0.4678304884E-02       7    6    1         0.2598513688E+00      0.2599661683E+00
          0                28           2             7    6     1       0.4678303196E-02       7    6    1         0.2598489635E+00      0.2599637212E+00
          0                29           2             7    6     1       0.4678301507E-02       7    6    1         0.2598465582E+00      0.2599613221E+00
          0                30           2             7    6     1       0.4678299819E-02       7    6    1         0.2598441530E+00      0.2599589277E+00
                                                   Max.-Head-Change                         Max.-Flux-Residual
  Residual-Control   Outer-Iter.   Inner-Iter.     Column Row Layer    Maximum-Head-Change  Column Row Layer    Maximum-Flux-Residual          L2-NORM 
          0                31           2             7    6     1       0.4678298130E-02       7    6    1         0.2598417479E+00      0.2599564784E+00
          0                32           2             7    6     1       0.4678296442E-02       7    6    1         0.2598393427E+00      0.2599540874E+00
          0                33           2             7    6     1       0.4678294753E-02       7    6    1         0.2598369377E+00      0.2599516760E+00
          0                34           2             7    6     1       0.4678293065E-02       7    6    1         0.2598345327E+00      0.2599492617E+00
          0                35           2             7    6     1       0.4678291377E-02       7    6    1         0.2598321277E+00      0.2599468833E+00
          0                36           2             7    6     1       0.4678289688E-02       7    6    1         0.2598297227E+00      0.2599444631E+00
          0                37           2             7    6     1       0.4678287999E-02       7    6    1         0.2598273178E+00      0.2599420882E+00
          0                38           2             7    6     1       0.4678286311E-02       7    6    1         0.2598249130E+00      0.2599393004E+00
          0                39           2             7    6     1       0.4678284623E-02       7    6    1         0.2598225082E+00      0.2598529692E+00
          0                40           2             7    6     1       0.2121554433E-02       7    6    1         0.1177998779E+00      0.1178166247E+00
                                                   Max.-Head-Change                         Max.-Flux-Residual
  Residual-Control   Outer-Iter.   Inner-Iter.     Column Row Layer    Maximum-Head-Change  Column Row Layer    Maximum-Flux-Residual          L2-NORM 
          0                41           2             7    6     1      -0.1686382293E-03       7    6    1        -0.9479369214E-02      0.9540801442E-02
          0                42           1             7    6     1       0.1190301386E-04       7    6    1         0.6700650920E-03      0.6837326438E-03
          0                43           1             7    6     1      -0.7023928628E-06       7    6    1        -0.4077459039E-04      0.4959333294E-04

    ------------------------------------------------
       NWT REQUIRED           43 OUTER ITERATIONS 
       AND A TOTAL OF         84 INNER ITERATIONS.
    ------------------------------------------------

 NO OUTPUT CONTROL FOR STRESS PERIOD   20   TIME STEP    1
 
 SOLVING FOR HEAD 
                                                   Max.-Head-Change                         Max.-Flux-Residual
  Residual-Control   Outer-Iter.   Inner-Iter.     Column Row Layer    Maximum-Head-Change  Column Row Layer    Maximum-Flux-Residual          L2-NORM 
          0                 1           2             7    6     1      -0.8209319121E-01       7    6    1        -0.4489385796E+01      0.5045412138E+01
          0                 2           2             7    6     1      -0.1848890457E+00       7    6    1        -0.1008882796E+02      0.1009747163E+02
          0                 3           2             7    6     1       0.2317486538E-01       7    6    1         0.1277429114E+01      0.1286616052E+01
          0                 4           2             7    6     1       0.2788095155E-02       7    6    1         0.1535544670E+00      0.1652521071E+00
          0                 5           2             7    6     1       0.4626186537E-02       7    6    1         0.2547022309E+00      0.2562365775E+00
          0                 6           2             7    6     1       0.4461251900E-02       7    6    1         0.2455932650E+00      0.2460030318E+00
          0                 7           2             7    6     1       0.4476190184E-02       7    6    1         0.2464106000E+00      0.2465830241E+00
          0                 8           2             7    6     1       0.4474877097E-02       7    6    1         0.2463354711E+00      0.2464606155E+00
          0                 9           2             7    6     1       0.4474997121E-02       7    6    1         0.2463397670E+00      0.2464553673E+00
          0                10           2             7    6     1       0.4474968832E-02       7    6    1         0.2463359625E+00      0.2464496240E+00
                                                   Max.-Head-Change                         Max.-Flux-Residual
  Residual-Control   Outer-Iter.   Inner-Iter.     Column Row Layer    Maximum-Head-Change  Column Row Layer    Maximum-Flux-Residual          L2-NORM 
          0                11           2             7    6     1       0.4474971001E-02       7    6    1         0.2463338418E+00      0.2464470904E+00
          0                12           2             7    6     1       0.4474987771E-02       7    6    1         0.2463325232E+00      0.2464456683E+00
          0                13           2             7    6     1       0.4474985934E-02       7    6    1         0.2463301787E+00      0.2464432332E+00
          0                14           2             7    6     1       0.4474968467E-02       7    6    1         0.2463269730E+00      0.2464400263E+00
          0                15           2             7    6     1       0.4474969734E-02       7    6    1         0.2463247986E+00      0.2464378157E+00
          0                16           2             7    6     1       0.4474986641E-02       7    6    1         0.2463234850E+00      0.2464364880E+00
          0                17           2             7    6     1       0.4474967499E-02       7    6    1         0.2463201865E+00      0.2464331449E+00
          0                18           2             7    6     1       0.4474968925E-02       7    6    1         0.2463180207E+00      0.2464309282E+00
          0                19           2             7    6     1       0.4474968498E-02       7    6    1         0.2463157528E+00      0.2464286562E+00
          0                20           2             7    6     1       0.4474968239E-02       7    6    1         0.2463134941E+00      0.2464263603E+00
                                                   Max.-Head-Change                         Max.-Flux-Residual
  Residual-Control   Outer-Iter.   Inner-Iter.     Column Row Layer    Maximum-Head-Change  Column Row Layer    Maximum-Flux-Residual          L2-NORM 
          0                21           2             7    6     1       0.4474967965E-02       7    6    1         0.2463112346E+00      0.2464240914E+00
          0                22           2             7    6     1       0.4474967692E-02       7    6    1         0.2463089753E+00      0.2464217812E+00
          0                23           2             7    6     1       0.4474967420E-02       7    6    1         0.2463067160E+00      0.2464195323E+00
          0                24           2             7    6     1       0.4474967146E-02       7    6    1         0.2463044567E+00      0.2464172308E+00
          0                25           2             7    6     1       0.4474966874E-02       7    6    1         0.2463021975E+00      0.2464149656E+00
          0                26           2             7    6     1       0.4474966601E-02       7    6    1         0.2462999383E+00      0.2464126893E+00
          0                27           2             7    6     1       0.4474966328E-02       7    6    1         0.2462976792E+00      0.2464103871E+00
          0                28           2             7    6     1       0.4474966055E-02       7    6    1         0.2462954201E+00      0.2464081321E+00
          0                29           2             7    6     1       0.4474965783E-02       7    6    1         0.2462931611E+00      0.2464058308E+00
          0                30           2             7    6     1       0.4474965509E-02       7    6    1         0.2462909020E+00      0.2464035845E+00
                                                   Max.-Head-Change                         Max.-Flux-Residual
  Residual-Control   Outer-Iter.   Inner-Iter.     Column Row Layer    Maximum-Head-Change  Column Row Layer    Maximum-Flux-Residual          L2-NORM 
          0                31           2             7    6     1       0.4474965237E-02       7    6    1         0.2462886431E+00      0.2464013425E+00
          0                32           2             7    6     1       0.4474982289E-02       7    6    1         0.2462873378E+00      0.2463999940E+00
          0                33           2             7    6     1       0.4474980455E-02       7    6    1         0.2462849928E+00      0.2463976441E+00
          0                34           2             7    6     1       0.4474980323E-02       7    6    1         0.2462827417E+00      0.2463954283E+00
          0                35           2             7    6     1       0.4474980038E-02       7    6    1         0.2462804822E+00      0.2463931178E+00
          0                36           2             7    6     1       0.4474979766E-02       7    6    1         0.2462782235E+00      0.2463908836E+00
          0                37           2             7    6     1       0.4474977988E-02       7    6    1         0.2462759389E+00      0.2463885938E+00
          0                38           2             7    6     1       0.4474976252E-02       7    6    1         0.2462736696E+00      0.2463863598E+00
          0                39           2             7    6     1       0.4474974725E-02       7    6    1         0.2462714119E+00      0.2463840943E+00
          0                40           2             7    6     1       0.4474973179E-02       7    6    1         0.2462691532E+00      0.2463818592E+00
                                                   Max.-Head-Change                         Max.-Flux-Residual
  Residual-Control   Outer-Iter.   Inner-Iter.     Column Row Layer    Maximum-Head-Change  Column Row Layer    Maximum-Flux-Residual          L2-NORM 
          0                41           2             7    6     1       0.4474971635E-02       7    6    1         0.2462668946E+00      0.2462785600E+00
          0                42           2             7    6     1       0.7833594788E-03       7    6    1         0.4307097151E-01      0.4311447960E-01
          0                43           1             7    6     1      -0.6983110059E-04       7    6    1        -0.3893898033E-02      0.3943182893E-02
          0                44           1             7    6     1       0.5628260913E-05       7    6    1         0.3134049180E-03      0.3256874928E-03

    ------------------------------------------------
       NWT REQUIRED           44 OUTER ITERATIONS 
       AND A TOTAL OF         86 INNER ITERATIONS.
    ------------------------------------------------

 NO OUTPUT CONTROL FOR STRESS PERIOD   20   TIME STEP    2
 
 SOLVING FOR HEAD 
                                                   Max.-Head-Change                         Max.-Flux-Residual
  Residual-Control   Outer-Iter.   Inner-Iter.     Column Row Layer    Maximum-Head-Change  Column Row Layer    Maximum-Flux-Residual          L2-NORM 
          0                 1           2             7    6     1      -0.7803031145E-01       7    6    1        -0.4265077877E+01      0.4808697819E+01
          0                 2           2             7    6     1      -0.1869160606E+00       7    6    1        -0.1019901944E+02      0.1020738886E+02
          0                 3           2             7    6     1       0.2177976387E-01       7    6    1         0.1200697248E+01      0.1210575828E+01
          0                 4           2             7    6     1       0.1319020123E-02       7    6    1         0.7269180370E-01      0.9480735985E-01
          0                 5           2             7    6     1       0.3164036868E-02       7    6    1         0.1742126245E+00      0.1763627434E+00
          0                 6           2             7    6     1       0.2998540704E-02       7    6    1         0.1650719769E+00      0.1655893903E+00
          0                 7           2             7    6     1       0.3013536661E-02       7    6    1         0.1658929544E+00      0.1660579941E+00
          0                 8           2             7    6     1       0.3012185157E-02       7    6    1         0.1658163928E+00      0.1659112635E+00
          0                 9           2             7    6     1       0.3012326347E-02       7    6    1         0.1658225761E+00      0.1659033050E+00
          0                10           2             7    6     1       0.3012313679E-02       7    6    1         0.1658203603E+00      0.1658982611E+00
                                                   Max.-Head-Change                         Max.-Flux-Residual
  Residual-Control   Outer-Iter.   Inner-Iter.     Column Row Layer    Maximum-Head-Change  Column Row Layer    Maximum-Flux-Residual          L2-NORM 
          0                11           2             7    6     1       0.3012314615E-02       7    6    1         0.1658189017E+00      0.1658962428E+00
          0                12           2             7    6     1       0.3012297017E-02       7    6    1         0.1658164213E+00      0.1658935974E+00
          0                13           2             7    6     1       0.3012315756E-02       7    6    1         0.1658159402E+00      0.1658930787E+00
          0                14           2             7    6     1       0.3012313921E-02       7    6    1         0.1658143255E+00      0.1658914105E+00
          0                15           2             7    6     1       0.3012313945E-02       7    6    1         0.1658128128E+00      0.1658899658E+00
          0                16           2             7    6     1       0.3012313805E-02       7    6    1         0.1658112910E+00      0.1658883876E+00
          0                17           2             7    6     1       0.3012313682E-02       7    6    1         0.1658097701E+00      0.1658868439E+00
          0                18           2             7    6     1       0.3012313557E-02       7    6    1         0.1658082491E+00      0.1658853122E+00
          0                19           2             7    6     1       0.3012313433E-02       7    6    1         0.1658067281E+00      0.1658837802E+00
          0                20           2             7    6     1       0.3012313309E-02       7    6    1         0.1658052072E+00      0.1658822508E+00
                                                   Max.-Head-Change                         Max.-Flux-Residual
  Residual-Control   Outer-Iter.   Inner-Iter.     Column Row Layer    Maximum-Head-Change  Column Row Layer    Maximum-Flux-Residual          L2-NORM 
          0                21           2             7    6     1       0.3012313186E-02       7    6    1         0.1658036863E+00      0.1658806961E+00
          0                22           2             7    6     1       0.3012313062E-02       7    6    1         0.1658021654E+00      0.1658791731E+00
          0                23           2             7    6     1       0.3012312938E-02       7    6    1         0.1658006446E+00      0.1658776443E+00
          0                24           2             7    6     1       0.3012312814E-02       7    6    1         0.1657991238E+00      0.1658761081E+00
          0                25           2             7    6     1       0.3012312690E-02       7    6    1         0.1657976030E+00      0.1658745165E+00
          0                26           2             7    6     1       0.3012312567E-02       7    6    1         0.1657960822E+00      0.1658730859E+00
          0                27           2             7    6     1       0.3012312443E-02       7    6    1         0.1657945615E+00      0.1658715343E+00
          0                28           2             7    6     1       0.3012312320E-02       7    6    1         0.1657930408E+00      0.1658699384E+00
          0                29           2             7    6     1       0.3012312195E-02       7    6    1         0.1657915201E+00      0.1658684468E+00
          0                30           2             7    6     1       0.3012312072E-02       7    6    1         0.1657899994E+00      0.1658669046E+00
                                                   Max.-Head-Change                         Max.-Flux-Residual
  Residual-Control   Outer-Iter.   Inner-Iter.     Column Row Layer    Maximum-Head-Change  Column Row Layer    Maximum-Flux-Residual          L2-NORM 
          0                31           2             7    6     1       0.3012311948E-02       7    6    1         0.1657884788E+00      0.1658653653E+00
          0                32           2             7    6     1       0.3012311824E-02       7    6    1         0.1657869582E+00      0.1658638397E+00
          0                33           2             7    6     1       0.3012311700E-02       7    6    1         0.1657854376E+00      0.1658623119E+00
          0                34           2             7    6     1       0.3012311576E-02       7    6    1         0.1657839171E+00      0.1658607973E+00
          0                35           2             7    6     1       0.3012311453E-02       7    6    1         0.1657823966E+00      0.1658592478E+00
          0                36           2             7    6     1       0.3012311329E-02       7    6    1         0.1657808761E+00      0.1658577129E+00
          0                37           2             7    6     1       0.3012311205E-02       7    6    1         0.1657793556E+00      0.1658562041E+00
          0                38           2             7    6     1       0.3012311082E-02       7    6    1         0.1657778352E+00      0.1658546649E+00
          0                39           2             7    6     1       0.3012310958E-02       7    6    1         0.1657763148E+00      0.1658531196E+00
          0                40           2             7    6     1       0.3012310834E-02       7    6    1         0.1657747944E+00      0.1658515993E+00
                                                   Max.-Head-Change                         Max.-Flux-Residual
  Residual-Control   Outer-Iter.   Inner-Iter.     Column Row Layer    Maximum-Head-Change  Column Row Layer    Maximum-Flux-Residual          L2-NORM 
          0                41           2             7    6     1       0.3012310710E-02       7    6    1         0.1657732741E+00      0.1658501076E+00
          0                42           2             7    6     1       0.3012310587E-02       7    6    1         0.1657717538E+00      0.1658485464E+00
          0                43           2             7    6     1       0.3012310463E-02       7    6    1         0.1657702335E+00      0.1658470192E+00
          0                44           2             7    6     1       0.3012310339E-02       7    6    1         0.1657687132E+00      0.1658454927E+00
          0                45           2             7    6     1       0.3012310215E-02       7    6    1         0.1657671930E+00      0.1658440085E+00
          0                46           2             7    6     1       0.3012310092E-02       7    6    1         0.1657656728E+00      0.1658424344E+00
          0                47           2             7    6     1       0.3012309967E-02       7    6    1         0.1657641526E+00      0.1658409368E+00
          0                48           2             7    6     1       0.3012309844E-02       7    6    1         0.1657626325E+00      0.1658394113E+00
          0                49           2             7    6     1       0.3012309720E-02       7    6    1         0.1657611123E+00      0.1658378501E+00
          0                50           2             7    6     1       0.3012309596E-02       7    6    1         0.1657595922E+00      0.1658363858E+00
                                                   Max.-Head-Change                         Max.-Flux-Residual
  Residual-Control   Outer-Iter.   Inner-Iter.     Column Row Layer    Maximum-Head-Change  Column Row Layer    Maximum-Flux-Residual          L2-NORM 
          0                51           2             7    6     1       0.3012309472E-02       7    6    1         0.1657580722E+00      0.1658351430E+00
          0                52           2             7    6     1       0.3012309349E-02       7    6    1         0.1657565521E+00      0.1658332710E+00
          0                53           2             7    6     1       0.3012309225E-02       7    6    1         0.1657550321E+00      0.1658318109E+00
          0                54           2             7    6     1       0.3012309101E-02       7    6    1         0.1657535121E+00      0.1658302994E+00
          0                55           2             7    6     1       0.3012308978E-02       7    6    1         0.1657519922E+00      0.1658287639E+00
          0                56           2             7    6     1       0.3012308854E-02       7    6    1         0.1657504723E+00      0.1658272646E+00
          0                57           2             7    6     1       0.3012308730E-02       7    6    1         0.1657489523E+00      0.1658257222E+00
          0                58           2             7    6     1       0.3012308606E-02       7    6    1         0.1657474325E+00      0.1658242325E+00
          0                59           2             7    6     1       0.3012308482E-02       7    6    1         0.1657459126E+00      0.1658227106E+00
          0                60           2             7    6     1       0.3012308359E-02       7    6    1         0.1657443928E+00      0.1657919594E+00
                                                   Max.-Head-Change                         Max.-Flux-Residual
  Residual-Control   Outer-Iter.   Inner-Iter.     Column Row Layer    Maximum-Head-Change  Column Row Layer    Maximum-Flux-Residual          L2-NORM 
          0                61           2             7    6     1       0.2302567400E-02       7    6    1         0.1266841877E+00      0.1266912713E+00
          0                62           2             7    6     1      -0.2061832749E-03       7    6    1        -0.1147609914E-01      0.1152389168E-01
          0                63           1             7    6     1       0.1656882319E-04       7    6    1         0.9258256428E-03      0.9329835547E-03
          0                64           1             7    6     1      -0.1148361844E-05       7    6    1        -0.6557827896E-04      0.7308355987E-04

    ------------------------------------------------
       NWT REQUIRED           64 OUTER ITERATIONS 
       AND A TOTAL OF        126 INNER ITERATIONS.
    ------------------------------------------------

 NO OUTPUT CONTROL FOR STRESS PERIOD   20   TIME STEP    3
 
 SOLVING FOR HEAD 
                                                   Max.-Head-Change                         Max.-Flux-Residual
  Residual-Control   Outer-Iter.   Inner-Iter.     Column Row Layer    Maximum-Head-Change  Column Row Layer    Maximum-Flux-Residual          L2-NORM 
          0                 1           2             7    6     1      -0.7421593323E-01       7    6    1        -0.4054610932E+01      0.4589402308E+01
          0                 2           2             7    6     1       0.1016955722E+00       7    6    1         0.5599184874E+01      0.5614207986E+01
          0                 3           2             7    6     1      -0.9052240044E-02       7    6    1        -0.5038947892E+00      0.5246184741E+00
          0                 4           2             7    6     1       0.7213909020E-03       7    6    1         0.4037395662E-01      0.7296308583E-01
          0                 5           2             8    2     1       0.2193749082E-03       8    2    1         0.5696598901E-02      0.2716491366E-01
          0                 6           1             8    2     1       0.9861159257E-04       8    2    1         0.2560689851E-02      0.1208035660E-01
          0                 7           1             8    2     1       0.4432702664E-04       8    2    1         0.1151059915E-02      0.5406836844E-02
          0                 8           1             8    2     1       0.1992548206E-04       8    2    1         0.5174143740E-03      0.2420748489E-02
          0                 9           1             8    2     1       0.8956713192E-05       8    2    1         0.2325833666E-03      0.1083933943E-02

    ------------------------------------------------
       NWT REQUIRED            9 OUTER ITERATIONS 
       AND A TOTAL OF         14 INNER ITERATIONS.
    ------------------------------------------------

 NO OUTPUT CONTROL FOR STRESS PERIOD   20   TIME STEP    4
 
 SOLVING FOR HEAD 
                                                   Max.-Head-Change                         Max.-Flux-Residual
  Residual-Control   Outer-Iter.   Inner-Iter.     Column Row Layer    Maximum-Head-Change  Column Row Layer    Maximum-Flux-Residual          L2-NORM 
          0                 1           2             7    6     1      -0.2731186422E+00       7    6    1        -0.1490771275E+02      0.1505632471E+02
          0                 2           2             7    6     1       0.3176366606E+00       7    6    1         0.1749074800E+02      0.1749556888E+02
          0                 3           2             7    6     1      -0.2828585319E-01       7    6    1        -0.1574205035E+01      0.1583777034E+01
          0                 4           2             7    6     1       0.2252365482E-02       7    6    1         0.1261080436E+00      0.1401683478E+00
          0                 5           2             8    2     1       0.2192866652E-03       7    6    1        -0.8860003837E-02      0.2848684898E-01
          0                 6           1             8    2     1       0.9857188256E-04       8    2    1         0.2559659609E-02      0.1208782045E-01
          0                 7           1             8    2     1       0.4430915733E-04       8    2    1         0.1150596306E-02      0.5403992018E-02
          0                 8           1             8    2     1       0.1991744087E-04       8    2    1         0.5172057474E-03      0.2419322221E-02
          0                 9           1             8    2     1       0.8953094460E-05       8    2    1         0.2324894822E-03      0.1083278535E-02

    ------------------------------------------------
       NWT REQUIRED            9 OUTER ITERATIONS 
       AND A TOTAL OF         14 INNER ITERATIONS.
    ------------------------------------------------

 NO OUTPUT CONTROL FOR STRESS PERIOD   20   TIME STEP    5
 
 SOLVING FOR HEAD 
                                                   Max.-Head-Change                         Max.-Flux-Residual
  Residual-Control   Outer-Iter.   Inner-Iter.     Column Row Layer    Maximum-Head-Change  Column Row Layer    Maximum-Flux-Residual          L2-NORM 
          0                 1           2             7    6     1      -0.2739066280E+00       7    6    1        -0.1495139341E+02      0.1509461804E+02
          0                 2           2             7    6     1       0.3177177041E+00       7    6    1         0.1749511647E+02      0.1749987113E+02
          0                 3           2             7    6     1      -0.2829251085E-01       7    6    1        -0.1574583420E+01      0.1584154634E+01
          0                 4           2             7    6     1       0.2252923327E-02       7    6    1         0.1261404809E+00      0.1401726753E+00
          0                 5           2             8    2     1       0.2191984419E-03       7    6    1        -0.8861854084E-02      0.2846443794E-01
          0                 6           1             8    2     1       0.9853217993E-04       8    2    1         0.2558629599E-02      0.1207754520E-01
          0                 7           1             8    2     1       0.4429129002E-04       8    2    1         0.1150132776E-02      0.5399416862E-02
          0                 8           1             8    2     1       0.1990940030E-04       8    2    1         0.5169971508E-03      0.2417271150E-02
          0                 9           1             8    2     1       0.8949476104E-05       8    2    1         0.2323956096E-03      0.1082358425E-02

    ------------------------------------------------
       NWT REQUIRED            9 OUTER ITERATIONS 
       AND A TOTAL OF         14 INNER ITERATIONS.
    ------------------------------------------------

 NO OUTPUT CONTROL FOR STRESS PERIOD   20   TIME STEP    6
 
 SOLVING FOR HEAD 
                                                   Max.-Head-Change                         Max.-Flux-Residual
  Residual-Control   Outer-Iter.   Inner-Iter.     Column Row Layer    Maximum-Head-Change  Column Row Layer    Maximum-Flux-Residual          L2-NORM 
          0                 1           2             7    6     1      -0.2746426966E+00       7    6    1        -0.1499217720E+02      0.1513047285E+02
          0                 2           2             7    6     1       0.3177932957E+00       7    6    1         0.1749919521E+02      0.1750389016E+02
          0                 3           2             7    6     1      -0.2829881077E-01       7    6    1        -0.1574952153E+01      0.1584551070E+01
          0                 4           2             7    6     1       0.2253498538E-02       7    6    1         0.1261701770E+00      0.1401841287E+00
          0                 5           2             8    2     1       0.2191102512E-03       7    6    1        -0.8863892896E-02      0.2844544871E-01
          0                 6           1             8    2     1       0.9849249181E-04       8    2    1         0.2557599961E-02      0.1206765321E-01
          0                 7           1             8    2     1       0.4427342922E-04       8    2    1         0.1149669408E-02      0.5394927186E-02
          0                 8           1             8    2     1       0.1990136210E-04       8    2    1         0.5167886191E-03      0.2415250921E-02
          0                 9           1             8    2     1       0.8945859123E-05       8    2    1         0.2323017672E-03      0.1081450346E-02

    ------------------------------------------------
       NWT REQUIRED            9 OUTER ITERATIONS 
       AND A TOTAL OF         14 INNER ITERATIONS.
    ------------------------------------------------

 NO OUTPUT CONTROL FOR STRESS PERIOD   20   TIME STEP    7
 
 SOLVING FOR HEAD 
                                                   Max.-Head-Change                         Max.-Flux-Residual
  Residual-Control   Outer-Iter.   Inner-Iter.     Column Row Layer    Maximum-Head-Change  Column Row Layer    Maximum-Flux-Residual          L2-NORM 
          0                 1           2             7    6     1      -0.2753302557E+00       7    6    1        -0.1503026736E+02      0.1516413719E+02
          0                 2           2             7    6     1       0.3178635955E+00       7    6    1         0.1750299198E+02      0.1750763323E+02
          0                 3           2             7    6     1      -0.2830469149E-01       7    6    1        -0.1575296037E+01      0.1584919526E+01
          0                 4           2             7    6     1       0.2254033516E-02       7    6    1         0.1261978906E+00      0.1401936366E+00
          0                 5           2             8    2     1       0.2190202628E-03       7    6    1        -0.8865788330E-02      0.2842662858E-01
          0                 6           1             8    2     1       0.9845199721E-04       8    2    1         0.2556549352E-02      0.1205791576E-01
          0                 7           1             8    2     1       0.4425520650E-04       8    2    1         0.1149196633E-02      0.5397634468E-02
          0                 8           1             8    2     1       0.1989316209E-04       8    2    1         0.5165758722E-03      0.2430829498E-02
          0                 9           1             8    2     1       0.8942168859E-05       8    2    1         0.2322060291E-03      0.1080623112E-02

    ------------------------------------------------
       NWT REQUIRED            9 OUTER ITERATIONS 
       AND A TOTAL OF         14 INNER ITERATIONS.
    ------------------------------------------------

 NO OUTPUT CONTROL FOR STRESS PERIOD   20   TIME STEP    8
 
 SOLVING FOR HEAD 
                                                   Max.-Head-Change                         Max.-Flux-Residual
  Residual-Control   Outer-Iter.   Inner-Iter.     Column Row Layer    Maximum-Head-Change  Column Row Layer    Maximum-Flux-Residual          L2-NORM 
          0                 1           2             7    6     1      -0.2759731563E+00       7    6    1        -0.1506586903E+02      0.1519566124E+02
          0                 2           2             7    6     1       0.3179292156E+00       7    6    1         0.1750653963E+02      0.1751113184E+02
          0                 3           2             7    6     1      -0.2820353945E-01       7    6    1        -0.1569691037E+01      0.1579372524E+01
          0                 4           2             7    6     1       0.2140388174E-02       7    6    1         0.1198222563E+00      0.1344692769E+00
          0                 5           2             8    2     1       0.2189321448E-03       7    6    1        -0.8417599651E-02      0.2826845589E-01
          0                 6           1             8    2     1       0.9841234160E-04       8    2    1         0.2555520567E-02      0.1204706540E-01
          0                 7           1             8    2     1       0.4423736046E-04       8    2    1         0.1148733651E-02      0.5386154131E-02
          0                 8           1             8    2     1       0.1988513052E-04       8    2    1         0.5163675133E-03      0.2411311326E-02
          0                 9           1             8    2     1       0.8938554630E-05       8    2    1         0.2321122627E-03      0.1079681894E-02

    ------------------------------------------------
       NWT REQUIRED            9 OUTER ITERATIONS 
       AND A TOTAL OF         14 INNER ITERATIONS.
    ------------------------------------------------

 NO OUTPUT CONTROL FOR STRESS PERIOD   20   TIME STEP    9
 
 SOLVING FOR HEAD 
                                                   Max.-Head-Change                         Max.-Flux-Residual
  Residual-Control   Outer-Iter.   Inner-Iter.     Column Row Layer    Maximum-Head-Change  Column Row Layer    Maximum-Flux-Residual          L2-NORM 
          0                 1           2             7    6     1      -0.2765747707E+00       7    6    1        -0.1509916962E+02      0.1522532792E+02
          0                 2           2             7    6     1       0.3179905383E+00       7    6    1         0.1750985845E+02      0.1751440907E+02
          0                 3           2             7    6     1      -0.2161662143E-01       7    6    1        -0.1203654916E+01      0.1216159366E+01
          0                 4           2             7    6     1      -0.3811159159E-02       7    6    1        -0.2120147366E+00      0.2206884140E+00
          0                 5           2             7    6     1      -0.6728178812E-03       7    6    1        -0.3739651771E-01      0.4606116973E-01
          0                 6           2             7    6     1      -0.1149014574E-03       7    6    1        -0.6381222833E-02      0.1361304548E-01
          0                 7           1             8    2     1       0.4421915237E-04       8    2    1         0.1148261252E-02      0.5406418204E-02
          0                 8           1             8    2     1       0.1987693688E-04       8    2    1         0.5161549327E-03      0.2409710359E-02
          0                 9           1             8    2     1       0.8934867368E-05       8    2    1         0.2320165994E-03      0.1078817756E-02

    ------------------------------------------------
       NWT REQUIRED            9 OUTER ITERATIONS 
       AND A TOTAL OF         15 INNER ITERATIONS.
    ------------------------------------------------

 NO OUTPUT CONTROL FOR STRESS PERIOD   20   TIME STEP   10
 
 SOLVING FOR HEAD 
                                                   Max.-Head-Change                         Max.-Flux-Residual
  Residual-Control   Outer-Iter.   Inner-Iter.     Column Row Layer    Maximum-Head-Change  Column Row Layer    Maximum-Flux-Residual          L2-NORM 
          0                 1           2             7    6     1      -0.2744353997E+00       7    6    1        -0.1498287421E+02      0.1510697851E+02
          0                 2           2             7    6     1       0.3151023815E+00       7    6    1         0.1735075905E+02      0.1735531209E+02
          0                 3           2             7    6     1      -0.1496074717E-01       7    6    1        -0.8338007947E+00      0.8516872904E+00
          0                 4           2             7    6     1      -0.2634085524E-02       7    6    1        -0.1466607108E+00      0.1590752105E+00
          0                 5           2             7    6     1      -0.4644161218E-03       7    6    1        -0.2583438470E-01      0.3729416503E-01
          0                 6           1             8    2     1       0.9833224004E-04       7    6    1        -0.4556864825E-02      0.1285150666E-01
          0                 7           1             8    2     1       0.4420131208E-04       8    2    1         0.1147798457E-02      0.5438274994E-02
          0                 8           1             8    2     1       0.1986890807E-04       8    2    1         0.5159466522E-03      0.2412044248E-02
          0                 9           1             8    2     1       0.8931253638E-05       8    2    1         0.2319228601E-03      0.1078378788E-02

    ------------------------------------------------
       NWT REQUIRED            9 OUTER ITERATIONS 
       AND A TOTAL OF         14 INNER ITERATIONS.
    ------------------------------------------------

 NO OUTPUT CONTROL FOR STRESS PERIOD   20   TIME STEP   11
 
 SOLVING FOR HEAD 
                                                   Max.-Head-Change                         Max.-Flux-Residual
  Residual-Control   Outer-Iter.   Inner-Iter.     Column Row Layer    Maximum-Head-Change  Column Row Layer    Maximum-Flux-Residual          L2-NORM 
          0                 1           2             7    6     1      -0.2753306048E+00       7    6    1        -0.1503237556E+02      0.1515351032E+02
          0                 2           2             7    6     1       0.3151618583E+00       7    6    1         0.1735395187E+02      0.1735846610E+02
          0                 3           2             7    6     1      -0.1514896426E-01       7    6    1        -0.8442773576E+00      0.8620072097E+00
          0                 4           2             7    6     1      -0.2667287672E-02       7    6    1        -0.1485071263E+00      0.1607662065E+00
          0                 5           2             7    6     1      -0.4702806640E-03       7    6    1        -0.2616024156E-01      0.3750612161E-01
          0                 6           1             8    2     1       0.9829180496E-04       7    6    1        -0.4614444908E-02      0.1286352260E-01
          0                 7           1             8    2     1       0.4418311637E-04       8    2    1         0.1147326377E-02      0.5435735035E-02
          0                 8           1             8    2     1       0.1986071968E-04       8    2    1         0.5157342124E-03      0.2410309254E-02
          0                 9           1             8    2     1       0.8927569002E-05       8    2    1         0.2318272628E-03      0.1077555598E-02

    ------------------------------------------------
       NWT REQUIRED            9 OUTER ITERATIONS 
       AND A TOTAL OF         14 INNER ITERATIONS.
    ------------------------------------------------

 NO OUTPUT CONTROL FOR STRESS PERIOD   20   TIME STEP   12
 
 SOLVING FOR HEAD 
                                                   Max.-Head-Change                         Max.-Flux-Residual
  Residual-Control   Outer-Iter.   Inner-Iter.     Column Row Layer    Maximum-Head-Change  Column Row Layer    Maximum-Flux-Residual          L2-NORM 
          0                 1           2             7    6     1      -0.2761888721E+00       7    6    1        -0.1507979136E+02      0.1519815155E+02
          0                 2           2             7    6     1       0.3152490126E+00       7    6    1         0.1735867999E+02      0.1736315654E+02
          0                 3           2             7    6     1      -0.1535432963E-01       7    6    1        -0.8556820345E+00      0.8731201363E+00
          0                 4           2             7    6     1      -0.2703610748E-02       7    6    1        -0.1505179177E+00      0.1625854952E+00
          0                 5           2             7    6     1      -0.4767364962E-03       7    6    1        -0.2651696139E-01      0.3773909547E-01
          0                 6           1             8    2     1       0.9825138752E-04       7    6    1        -0.4677985276E-02      0.1287798860E-01
          0                 7           1             8    2     1       0.4416492867E-04       8    2    1         0.1146854511E-02      0.5433435044E-02
          0                 8           1             8    2     1       0.1985253518E-04       8    2    1         0.5155218714E-03      0.2408794418E-02
          0                 9           1             8    2     1       0.8923885867E-05       8    2    1         0.2317317095E-03      0.1077117790E-02

    ------------------------------------------------
       NWT REQUIRED            9 OUTER ITERATIONS 
       AND A TOTAL OF         14 INNER ITERATIONS.
    ------------------------------------------------

 NO OUTPUT CONTROL FOR STRESS PERIOD   20   TIME STEP   13
 
 SOLVING FOR HEAD 
                                                   Max.-Head-Change                         Max.-Flux-Residual
  Residual-Control   Outer-Iter.   Inner-Iter.     Column Row Layer    Maximum-Head-Change  Column Row Layer    Maximum-Flux-Residual          L2-NORM 
          0                 1           2             7    6     1      -0.2769819431E+00       7    6    1        -0.1512358570E+02      0.1523952247E+02
          0                 2           2             7    6     1       0.3153294400E+00       7    6    1         0.1736304782E+02      0.1736749353E+02
          0                 3           2             7    6     1      -0.1554426172E-01       7    6    1        -0.8662505142E+00      0.8835248600E+00
          0                 4           2             7    6     1      -0.2737131951E-02       7    6    1        -0.1523814771E+00      0.1642983688E+00
          0                 5           2             7    6     1      -0.4826602046E-03       7    6    1        -0.2684600859E-01      0.3795701351E-01
          0                 6           1             8    2     1       0.9821097283E-04       7    6    1        -0.4736156744E-02      0.1289100021E-01
          0                 7           1             8    2     1       0.4414674047E-04       8    2    1         0.1146382655E-02      0.5431076384E-02
          0                 8           1             8    2     1       0.1984435004E-04       8    2    1         0.5153095215E-03      0.2406927943E-02
          0                 9           1             8    2     1       0.8920202357E-05       8    2    1         0.2316361430E-03      0.1075942926E-02

    ------------------------------------------------
       NWT REQUIRED            9 OUTER ITERATIONS 
       AND A TOTAL OF         14 INNER ITERATIONS.
    ------------------------------------------------

 NO OUTPUT CONTROL FOR STRESS PERIOD   20   TIME STEP   14
 
 SOLVING FOR HEAD 
                                                   Max.-Head-Change                         Max.-Flux-Residual
  Residual-Control   Outer-Iter.   Inner-Iter.     Column Row Layer    Maximum-Head-Change  Column Row Layer    Maximum-Flux-Residual          L2-NORM 
          0                 1           2             7    6     1      -0.2777153666E+00       7    6    1        -0.1516406820E+02      0.1527782054E+02
          0                 2           2             7    6     1       0.3154037178E+00       7    6    1         0.1736708605E+02      0.1737150405E+02
          0                 3           2             7    6     1      -0.1571995320E-01       7    6    1        -0.8760262362E+00      0.8931499055E+00
          0                 4           2             7    6     1      -0.2768141497E-02       7    6    1        -0.1541053501E+00      0.1658845765E+00
          0                 5           2             7    6     1      -0.4881403169E-03       7    6    1        -0.2715040700E-01      0.3815912996E-01
          0                 6           1             8    2     1       0.9817139850E-04       7    6    1        -0.4789972932E-02      0.1290272220E-01
          0                 7           1             8    2     1       0.4412893032E-04       8    2    1         0.1145920625E-02      0.5428648441E-02
          0                 8           1             8    2     1       0.1983633461E-04       8    2    1         0.5151015865E-03      0.2405253113E-02
          0                 9           1             8    2     1       0.8916595255E-05       8    2    1         0.2315425646E-03      0.1075149779E-02

    ------------------------------------------------
       NWT REQUIRED            9 OUTER ITERATIONS 
       AND A TOTAL OF         14 INNER ITERATIONS.
    ------------------------------------------------

 NO OUTPUT CONTROL FOR STRESS PERIOD   20   TIME STEP   15
 
 SOLVING FOR HEAD 
                                                   Max.-Head-Change                         Max.-Flux-Residual
  Residual-Control   Outer-Iter.   Inner-Iter.     Column Row Layer    Maximum-Head-Change  Column Row Layer    Maximum-Flux-Residual          L2-NORM 
          0                 1           2             7    6     1      -0.2783939622E+00       7    6    1        -0.1520150766E+02      0.1531328177E+02
          0                 2           2             7    6     1       0.3154723471E+00       7    6    1         0.1737082134E+02      0.1737521078E+02
          0                 3           2             7    6     1      -0.1588255147E-01       7    6    1        -0.8850730990E+00      0.9020418637E+00
          0                 4           2             7    6     1      -0.2796841643E-02       7    6    1        -0.1557007888E+00      0.1673371632E+00
          0                 5           2             7    6     1      -0.4932125377E-03       7    6    1        -0.2743214111E-01      0.3833251348E-01
          0                 6           1             8    2     1       0.9813101933E-04       7    6    1        -0.4839784342E-02      0.1290531867E-01
          0                 7           1             8    2     1       0.4411075912E-04       8    2    1         0.1145449188E-02      0.5422590814E-02
          0                 8           1             8    2     1       0.1982815723E-04       8    2    1         0.5148894309E-03      0.2402068452E-02
          0                 9           1             8    2     1       0.8912915246E-05       8    2    1         0.2314470914E-03      0.1073724848E-02

    ------------------------------------------------
       NWT REQUIRED            9 OUTER ITERATIONS 
       AND A TOTAL OF         14 INNER ITERATIONS.
    ------------------------------------------------

 NO OUTPUT CONTROL FOR STRESS PERIOD   20   TIME STEP   16
 
 SOLVING FOR HEAD 
                                                   Max.-Head-Change                         Max.-Flux-Residual
  Residual-Control   Outer-Iter.   Inner-Iter.     Column Row Layer    Maximum-Head-Change  Column Row Layer    Maximum-Flux-Residual          L2-NORM 
          0                 1           2             7    6     1      -0.2790222314E+00       7    6    1        -0.1523615490E+02      0.1534614866E+02
          0                 2           2             7    6     1       0.3155357949E+00       7    6    1         0.1737427857E+02      0.1737864475E+02
          0                 3           2             7    6     1      -0.1603312881E-01       7    6    1        -0.8934508136E+00      0.9102864286E+00
          0                 4           2             7    6     1      -0.2823421429E-02       7    6    1        -0.1571783096E+00      0.1686946803E+00
          0                 5           2             7    6     1      -0.4979102430E-03       7    6    1        -0.2769306585E-01      0.3850308325E-01
          0                 6           1             8    2     1       0.9809065128E-04       7    6    1        -0.4885918592E-02      0.1291306765E-01
          0                 7           1             8    2     1       0.4409259256E-04       8    2    1         0.1144977891E-02      0.5419373443E-02
          0                 8           1             8    2     1       0.1981998210E-04       8    2    1         0.5146773434E-03      0.2400145500E-02
          0                 9           1             8    2     1       0.8909236238E-05       8    2    1         0.2313516499E-03      0.1072834818E-02

    ------------------------------------------------
       NWT REQUIRED            9 OUTER ITERATIONS 
       AND A TOTAL OF         14 INNER ITERATIONS.
    ------------------------------------------------

 NO OUTPUT CONTROL FOR STRESS PERIOD   20   TIME STEP   17
 
 SOLVING FOR HEAD 
                                                   Max.-Head-Change                         Max.-Flux-Residual
  Residual-Control   Outer-Iter.   Inner-Iter.     Column Row Layer    Maximum-Head-Change  Column Row Layer    Maximum-Flux-Residual          L2-NORM 
          0                 1           2             7    6     1      -0.2796043842E+00       7    6    1        -0.1526824470E+02      0.1537663931E+02
          0                 2           2             7    6     1       0.3155944994E+00       7    6    1         0.1737748105E+02      0.1738182799E+02
          0                 3           2             7    6     1      -0.1617268794E-01       7    6    1        -0.9012152234E+00      0.9179320191E+00
          0                 4           2             7    6     1      -0.2848057602E-02       7    6    1        -0.1585477458E+00      0.1699577846E+00
          0                 5           2             7    6     1      -0.5022646327E-03       7    6    1        -0.2793491542E-01      0.3866436826E-01
          0                 6           1             8    2     1       0.9805029386E-04       7    6    1        -0.4928681969E-02      0.1292149616E-01
          0                 7           1             8    2     1       0.4407443087E-04       8    2    1         0.1144506718E-02      0.5416820446E-02
          0                 8           1             8    2     1       0.1981180897E-04       8    2    1         0.5144653012E-03      0.2398514386E-02
          0                 9           1             8    2     1       0.8905557855E-05       8    2    1         0.2312562219E-03      0.1072065887E-02

    ------------------------------------------------
       NWT REQUIRED            9 OUTER ITERATIONS 
       AND A TOTAL OF         14 INNER ITERATIONS.
    ------------------------------------------------

 NO OUTPUT CONTROL FOR STRESS PERIOD   20   TIME STEP   18
 
 SOLVING FOR HEAD 
                                                   Max.-Head-Change                         Max.-Flux-Residual
  Residual-Control   Outer-Iter.   Inner-Iter.     Column Row Layer    Maximum-Head-Change  Column Row Layer    Maximum-Flux-Residual          L2-NORM 
          0                 1           2             7    6     1      -0.2801440256E+00       7    6    1        -0.1529797799E+02      0.1540491681E+02
          0                 2           2             7    6     1       0.3156488351E+00       7    6    1         0.1738044874E+02      0.1738477827E+02
          0                 3           2             7    6     1      -0.1630208779E-01       7    6    1        -0.9084141601E+00      0.9250203705E+00
          0                 4           2             7    6     1      -0.2870901578E-02       7    6    1        -0.1598175209E+00      0.1711294671E+00
          0                 5           2             7    6     1      -0.5063024368E-03       7    6    1        -0.2815917551E-01      0.3881393557E-01
          0                 6           1             8    2     1       0.9800995058E-04       7    6    1        -0.4968336907E-02      0.1292899295E-01
          0                 7           1             8    2     1       0.4405627531E-04       8    2    1         0.1144035706E-02      0.5414249220E-02
          0                 8           1             8    2     1       0.1980363859E-04       8    2    1         0.5142533348E-03      0.2396904859E-02
          0                 9           1             8    2     1       0.8901881223E-05       8    2    1         0.2311608324E-03      0.1071308910E-02

    ------------------------------------------------
       NWT REQUIRED            9 OUTER ITERATIONS 
       AND A TOTAL OF         14 INNER ITERATIONS.
    ------------------------------------------------

 NO OUTPUT CONTROL FOR STRESS PERIOD   20   TIME STEP   19
 
 SOLVING FOR HEAD 
                                                   Max.-Head-Change                         Max.-Flux-Residual
  Residual-Control   Outer-Iter.   Inner-Iter.     Column Row Layer    Maximum-Head-Change  Column Row Layer    Maximum-Flux-Residual          L2-NORM 
          0                 1           2             7    6     1      -0.2806446723E+00       7    6    1        -0.1532555035E+02      0.1543114927E+02
          0                 2           2             7    6     1       0.3156991658E+00       7    6    1         0.1738320108E+02      0.1738751451E+02
          0                 3           2             7    6     1      -0.1642215447E-01       7    6    1        -0.9150943151E+00      0.9315972003E+00
          0                 4           2             7    6     1      -0.2892093685E-02       7    6    1        -0.1609956680E+00      0.1722171973E+00
          0                 5           2             7    6     1      -0.5100473145E-03       7    6    1        -0.2836720038E-01      0.3895254658E-01
          0                 6           1             8    2     1       0.9796879968E-04       7    6    1        -0.5005111678E-02      0.1293557579E-01
          0                 7           1             8    2     1       0.4403775771E-04       8    2    1         0.1143555271E-02      0.5411646053E-02
          0                 8           1             8    2     1       0.1979530564E-04       8    2    1         0.5140371405E-03      0.2395309362E-02
          0                 9           1             8    2     1       0.8898131308E-05       8    2    1         0.2310635463E-03      0.1070560634E-02

    ------------------------------------------------
       NWT REQUIRED            9 OUTER ITERATIONS 
       AND A TOTAL OF         14 INNER ITERATIONS.
    ------------------------------------------------

 NO OUTPUT CONTROL FOR STRESS PERIOD   20   TIME STEP   20
 
 SOLVING FOR HEAD 
                                                   Max.-Head-Change                         Max.-Flux-Residual
  Residual-Control   Outer-Iter.   Inner-Iter.     Column Row Layer    Maximum-Head-Change  Column Row Layer    Maximum-Flux-Residual          L2-NORM 
          0                 1           2             7    6     1      -0.2811093100E+00       7    6    1        -0.1535112667E+02      0.1545550942E+02
          0                 2           2             7    6     1       0.3157458270E+00       7    6    1         0.1738575444E+02      0.1739005311E+02
          0                 3           2             7    6     1      -0.1653358415E-01       7    6    1        -0.9212949336E+00      0.9377088716E+00
          0                 4           2             7    6     1      -0.2911758692E-02       7    6    1        -0.1620889667E+00      0.1732270416E+00
          0                 5           2             7    6     1      -0.5135221761E-03       7    6    1        -0.2856023047E-01      0.3908101272E-01
          0                 6           1             8    2     1       0.9792849078E-04       7    6    1        -0.5039234525E-02      0.1294134115E-01
          0                 7           1             8    2     1       0.4401961753E-04       8    2    1         0.1143084658E-02      0.5409024843E-02
          0                 8           1             8    2     1       0.1978714239E-04       8    2    1         0.5138253575E-03      0.2393731793E-02
          0                 9           1             8    2     1       0.8894457927E-05       8    2    1         0.2309682407E-03      0.1069821829E-02

    ------------------------------------------------
       NWT REQUIRED            9 OUTER ITERATIONS 
       AND A TOTAL OF         14 INNER ITERATIONS.
    ------------------------------------------------

 NO OUTPUT CONTROL FOR STRESS PERIOD   20   TIME STEP   21
 
 SOLVING FOR HEAD 
                                                   Max.-Head-Change                         Max.-Flux-Residual
  Residual-Control   Outer-Iter.   Inner-Iter.     Column Row Layer    Maximum-Head-Change  Column Row Layer    Maximum-Flux-Residual          L2-NORM 
          0                 1           2             7    6     1      -0.2815407712E+00       7    6    1        -0.1537486943E+02      0.1547814052E+02
          0                 2           2             7    6     1       0.3157890408E+00       7    6    1         0.1738812501E+02      0.1739241110E+02
          0                 3           2             7    6     1      -0.1663710080E-01       7    6    1        -0.9270547324E+00      0.9433843025E+00
          0                 4           2             7    6     1      -0.2930029507E-02       7    6    1        -0.1631046772E+00      0.1741651348E+00
          0                 5           2             7    6     1      -0.5167510355E-03       7    6    1        -0.2873958321E-01      0.3920011179E-01
          0                 6           1             8    2     1       0.9788818614E-04       7    6    1        -0.5070942848E-02      0.1294632865E-01
          0                 7           1             8    2     1       0.4400147936E-04       8    2    1         0.1142614104E-02      0.5406376664E-02
          0                 8           1             8    2     1       0.1977897927E-04       8    2    1         0.5136135887E-03      0.2392167038E-02
          0                 9           1             8    2     1       0.8890784171E-05       8    2    1         0.2308729392E-03      0.1069090769E-02

    ------------------------------------------------
       NWT REQUIRED            9 OUTER ITERATIONS 
       AND A TOTAL OF         14 INNER ITERATIONS.
    ------------------------------------------------

 NO OUTPUT CONTROL FOR STRESS PERIOD   20   TIME STEP   22
 
 SOLVING FOR HEAD 
                                                   Max.-Head-Change                         Max.-Flux-Residual
  Residual-Control   Outer-Iter.   Inner-Iter.     Column Row Layer    Maximum-Head-Change  Column Row Layer    Maximum-Flux-Residual          L2-NORM 
          0                 1           2             7    6     1      -0.2819418093E+00       7    6    1        -0.1539692831E+02      0.1549919243E+02
          0                 2           2             7    6     1       0.3158292223E+00       7    6    1         0.1739032765E+02      0.1739460202E+02
          0                 3           2             7    6     1      -0.1673338891E-01       7    6    1        -0.9324083322E+00      0.9486430525E+00
          0                 4           2             7    6     1      -0.2947042970E-02       7    6    1        -0.1640498619E+00      0.1750366686E+00
          0                 5           2             7    6     1      -0.5197605986E-03       7    6    1        -0.2890665635E-01      0.3931070427E-01
          0                 6           1             8    2     1       0.9784708252E-04       7    6    1        -0.5100507523E-02      0.1295062229E-01
          0                 7           1             8    2     1       0.4398298339E-04       8    2    1         0.1142134222E-02      0.5403706456E-02
          0                 8           1             8    2     1       0.1977065632E-04       8    2    1         0.5133976473E-03      0.2390612925E-02
          0                 9           1             8    2     1       0.8887038883E-05       8    2    1         0.2307757684E-03      0.1068365909E-02

    ------------------------------------------------
       NWT REQUIRED            9 OUTER ITERATIONS 
       AND A TOTAL OF         14 INNER ITERATIONS.
    ------------------------------------------------

 NO OUTPUT CONTROL FOR STRESS PERIOD   20   TIME STEP   23
 
 SOLVING FOR HEAD 
                                                   Max.-Head-Change                         Max.-Flux-Residual
  Residual-Control   Outer-Iter.   Inner-Iter.     Column Row Layer    Maximum-Head-Change  Column Row Layer    Maximum-Flux-Residual          L2-NORM 
          0                 1           2             7    6     1      -0.2823146479E+00       7    6    1        -0.1541742731E+02      0.1551869581E+02
          0                 2           2             7    6     1       0.3158664653E+00       7    6    1         0.1739237472E+02      0.1739663634E+02
          0                 3           2             7    6     1      -0.1682289984E-01       7    6    1        -0.9373872891E+00      0.9535410098E+00
          0                 4           2             7    6     1      -0.2962848935E-02       7    6    1        -0.1649283053E+00      0.1758468818E+00
          0                 5           2             7    6     1      -0.5225549831E-03       7    6    1        -0.2906183793E-01      0.3941297726E-01
          0                 6           1             8    2     1       0.9780681139E-04       7    6    1        -0.5127953042E-02      0.1295417918E-01
          0                 7           1             8    2     1       0.4396486022E-04       8    2    1         0.1141664050E-02      0.5400997760E-02
          0                 8           1             8    2     1       0.1976250020E-04       8    2    1         0.5131860525E-03      0.2389064015E-02
          0                 9           1             8    2     1       0.8883368378E-05       8    2    1         0.2306805443E-03      0.1067645031E-02

    ------------------------------------------------
       NWT REQUIRED            9 OUTER ITERATIONS 
       AND A TOTAL OF         14 INNER ITERATIONS.
    ------------------------------------------------

 NO OUTPUT CONTROL FOR STRESS PERIOD   20   TIME STEP   24
 
 SOLVING FOR HEAD 
                                                   Max.-Head-Change                         Max.-Flux-Residual
  Residual-Control   Outer-Iter.   Inner-Iter.     Column Row Layer    Maximum-Head-Change  Column Row Layer    Maximum-Flux-Residual          L2-NORM 
          0                 1           2             7    6     1      -0.2826616616E+00       7    6    1        -0.1543649823E+02      0.1553681955E+02
          0                 2           2             7    6     1       0.3159010684E+00       7    6    1         0.1739427934E+02      0.1739852907E+02
          0                 3           2             7    6     1      -0.1690623139E-01       7    6    1        -0.9420223727E+00      0.9581001740E+00
          0                 4           2             7    6     1      -0.2977564449E-02       7    6    1        -0.1657461221E+00      0.1766011627E+00
          0                 5           2             7    6     1      -0.5251566909E-03       7    6    1        -0.2920631613E-01      0.3950797222E-01
          0                 6           1             8    2     1       0.9776656464E-04       7    6    1        -0.5153506539E-02      0.1295720651E-01
          0                 7           1             8    2     1       0.4394674843E-04       8    2    1         0.1141194166E-02      0.5398315124E-02
          0                 8           1             8    2     1       0.1975434996E-04       8    2    1         0.5129746055E-03      0.2387546645E-02
          0                 9           1             8    2     1       0.8879701000E-05       8    2    1         0.2305853931E-03      0.1066939769E-02

    ------------------------------------------------
       NWT REQUIRED            9 OUTER ITERATIONS 
       AND A TOTAL OF         14 INNER ITERATIONS.
    ------------------------------------------------

 NO OUTPUT CONTROL FOR STRESS PERIOD   20   TIME STEP   25
 
 SOLVING FOR HEAD 
                                                   Max.-Head-Change                         Max.-Flux-Residual
  Residual-Control   Outer-Iter.   Inner-Iter.     Column Row Layer    Maximum-Head-Change  Column Row Layer    Maximum-Flux-Residual          L2-NORM 
          0                 1           2             7    6     1      -0.2829847941E+00       7    6    1        -0.1545424907E+02      0.1555375824E+02
          0                 2           2             7    6     1       0.3159332324E+00       7    6    1         0.1739605226E+02      0.1740029266E+02
          0                 3           2             7    6     1      -0.1698384763E-01       7    6    1        -0.9463394190E+00      0.9623463478E+00
          0                 4           2             7    6     1      -0.2991271356E-02       7    6    1        -0.1665078643E+00      0.1773033933E+00
          0                 5           2             7    6     1      -0.5275801750E-03       7    6    1        -0.2934089410E-01      0.3959593261E-01
          0                 6           1             8    2     1       0.9772550179E-04       7    6    1        -0.5177309934E-02      0.1295957502E-01
          0                 7           1             8    2     1       0.4392827060E-04       8    2    1         0.1140714760E-02      0.5395577720E-02
          0                 8           1             8    2     1       0.1974603477E-04       8    2    1         0.5127588696E-03      0.2386023014E-02
          0                 9           1             8    2     1       0.8875959214E-05       8    2    1         0.2304883126E-03      0.1066233188E-02

    ------------------------------------------------
       NWT REQUIRED            9 OUTER ITERATIONS 
       AND A TOTAL OF         14 INNER ITERATIONS.
    ------------------------------------------------

 NO OUTPUT CONTROL FOR STRESS PERIOD   20   TIME STEP   26
 
 SOLVING FOR HEAD 
                                                   Max.-Head-Change                         Max.-Flux-Residual
  Residual-Control   Outer-Iter.   Inner-Iter.     Column Row Layer    Maximum-Head-Change  Column Row Layer    Maximum-Flux-Residual          L2-NORM 
          0                 1           2             7    6     1      -0.2832858228E+00       7    6    1        -0.1547077855E+02      0.1556952889E+02
          0                 2           2             7    6     1       0.3159631411E+00       7    6    1         0.1739770331E+02      0.1740193530E+02
          0                 3           2             7    6     1      -0.1705617287E-01       7    6    1        -0.9503620508E+00      0.9663022621E+00
          0                 4           2             7    6     1      -0.3004044483E-02       7    6    1        -0.1672176938E+00      0.1779575057E+00
          0                 5           2             7    6     1      -0.5298386515E-03       7    6    1        -0.2946630619E-01      0.3967753878E-01
          0                 6           1             8    2     1       0.9768446782E-04       7    6    1        -0.5199492921E-02      0.1296145313E-01
          0                 7           1             8    2     1       0.4390980603E-04       8    2    1         0.1140235692E-02      0.5392849850E-02
          0                 8           1             8    2     1       0.1973772658E-04       8    2    1         0.5125433069E-03      0.2384521035E-02
          0                 9           1             8    2     1       0.8872220804E-05       8    2    1         0.2303913155E-03      0.1065537459E-02

    ------------------------------------------------
       NWT REQUIRED            9 OUTER ITERATIONS 
       AND A TOTAL OF         14 INNER ITERATIONS.
    ------------------------------------------------

 NO OUTPUT CONTROL FOR STRESS PERIOD   20   TIME STEP   27
 
 SOLVING FOR HEAD 
                                                   Max.-Head-Change                         Max.-Flux-Residual
  Residual-Control   Outer-Iter.   Inner-Iter.     Column Row Layer    Maximum-Head-Change  Column Row Layer    Maximum-Flux-Residual          L2-NORM 
          0                 1           2             7    6     1      -0.2835664845E+00       7    6    1        -0.1548618328E+02      0.1558419100E+02
          0                 2           2             7    6     1       0.3159909746E+00       7    6    1         0.1739924212E+02      0.1740346545E+02
          0                 3           2             7    6     1      -0.1712362165E-01       7    6    1        -0.9541133492E+00      0.9699899421E+00
          0                 4           2             7    6     1      -0.3015956925E-02       7    6    1        -0.1678796764E+00      0.1785669577E+00
          0                 5           2             7    6     1      -0.5319450247E-03       7    6    1        -0.2958326961E-01      0.3975310163E-01
          0                 6           1             8    2     1       0.9764426359E-04       7    6    1        -0.5220182263E-02      0.1296278025E-01
          0                 7           1             8    2     1       0.4389171300E-04       8    2    1         0.1139766303E-02      0.5390086401E-02
          0                 8           1             8    2     1       0.1972958421E-04       8    2    1         0.5123320693E-03      0.2383019515E-02
          0                 9           1             8    2     1       0.8868556677E-05       8    2    1         0.2302962548E-03      0.1064843383E-02

    ------------------------------------------------
       NWT REQUIRED            9 OUTER ITERATIONS 
       AND A TOTAL OF         14 INNER ITERATIONS.
    ------------------------------------------------

 NO OUTPUT CONTROL FOR STRESS PERIOD   20   TIME STEP   28
 
 SOLVING FOR HEAD 
                                                   Max.-Head-Change                         Max.-Flux-Residual
  Residual-Control   Outer-Iter.   Inner-Iter.     Column Row Layer    Maximum-Head-Change  Column Row Layer    Maximum-Flux-Residual          L2-NORM 
          0                 1           2             7    6     1      -0.2838282580E+00       7    6    1        -0.1550054512E+02      0.1559787472E+02
          0                 2           2             7    6     1       0.3160168844E+00       7    6    1         0.1740067684E+02      0.1740489245E+02
          0                 3           2             7    6     1      -0.1721404665E-01       7    6    1        -0.9574894950E+00      0.9733008685E+00
          0                 4           2             7    6     1      -0.3004335611E-02       7    6    1        -0.1672158861E+00      0.1778886085E+00
          0                 5           2             7    6     1      -0.5299741641E-03       7    6    1        -0.2947097173E-01      0.3965681666E-01
          0                 6           1             8    2     1       0.9760325589E-04       7    6    1        -0.5201094853E-02      0.1294847790E-01
          0                 7           1             8    2     1       0.4387326043E-04       8    2    1         0.1139287546E-02      0.5386283712E-02
          0                 8           1             8    2     1       0.1972128078E-04       8    2    1         0.5121166328E-03      0.2381488053E-02
          0                 9           1             8    2     1       0.8864820143E-05       8    2    1         0.2301993111E-03      0.1064167724E-02

    ------------------------------------------------
       NWT REQUIRED            9 OUTER ITERATIONS 
       AND A TOTAL OF         14 INNER ITERATIONS.
    ------------------------------------------------

 NO OUTPUT CONTROL FOR STRESS PERIOD   20   TIME STEP   29
 
 SOLVING FOR HEAD 
                                                   Max.-Head-Change                         Max.-Flux-Residual
  Residual-Control   Outer-Iter.   Inner-Iter.     Column Row Layer    Maximum-Head-Change  Column Row Layer    Maximum-Flux-Residual          L2-NORM 
          0                 1           2             7    6     1      -0.2840726061E+00       7    6    1        -0.1551394560E+02      0.1561062516E+02
          0                 2           2             7    6     1       0.3160410229E+00       7    6    1         0.1740201560E+02      0.1740622300E+02
          0                 3           2             7    6     1      -0.1726497123E-01       7    6    1        -0.9603122645E+00      0.9760465994E+00
          0                 4           2             7    6     1      -0.3021184415E-02       7    6    1        -0.1681572714E+00      0.1787727043E+00
          0                 5           2             7    6     1      -0.5329296315E-03       7    6    1        -0.2963589284E-01      0.3976930392E-01
          0                 6           1             8    2     1       0.9756226344E-04       7    6    1        -0.5230050251E-02      0.1295353054E-01
          0                 7           1             8    2     1       0.4385481386E-04       8    2    1         0.1138808958E-02      0.5383943032E-02
          0                 8           1             8    2     1       0.1971298034E-04       8    2    1         0.5119012775E-03      0.2380078145E-02
          0                 9           1             8    2     1       0.8861084860E-05       8    2    1         0.2301024026E-03      0.1063501255E-02

    ------------------------------------------------
       NWT REQUIRED            9 OUTER ITERATIONS 
       AND A TOTAL OF         14 INNER ITERATIONS.
    ------------------------------------------------

 NO OUTPUT CONTROL FOR STRESS PERIOD   20   TIME STEP   30



 STREAM LISTING     PERIOD     20   STEP       30

 LAYER ROW COL. STREAM  RCH.  FLOW INTO     FLOW TO   FLOW OUT OF   OVRLND.     DIRECT     STREAM       STREAM     STREAM     STREAM   STREAMBED  STREAMBED
                SEG.NO.  NO.  STRM. RCH.    AQUIFER    STRM. RCH.    RUNOFF     PRECIP       ET          HEAD       DEPTH      WIDTH   CONDCTNC.   GRADIENT

   1    1    1     1     1    1.4000E+01  1.7986E-09   1.4000E+01  0.000E+00  0.000E+00  0.000E+00  1.09404E+03  9.902E-01  1.002E+01  4.508E-10  1.330E+00
   1    2    2     1     2    1.4000E+01  2.7921E-10   1.4000E+01  0.000E+00  0.000E+00  0.000E+00  1.08905E+03  9.892E-01  9.999E+00  6.999E-11  1.330E+00
   1    3    3     1     3    1.4000E+01  2.3952E-09   1.4000E+01  0.000E+00  0.000E+00  0.000E+00  1.08341E+03  9.896E-01  1.001E+01  6.004E-10  1.330E+00
   1    3    4     1     4    1.4000E+01  2.2164E-09   1.4000E+01  0.000E+00  0.000E+00  0.000E+00  1.07840E+03  9.898E-01  1.001E+01  5.555E-10  1.330E+00
   1    4    5     2     1    1.2000E+01  2.9419E-01   1.1706E+01  0.000E+00  0.000E+00  0.000E+00  1.07271E+03  7.717E-01  1.200E+01  7.800E-02  1.257E+00
   1    5    6     2     2    1.1706E+01  2.2569E-01   1.1480E+01  0.000E+00  0.000E+00  0.000E+00  1.06727E+03  7.615E-01  1.200E+01  6.000E-02  1.254E+00
   1    6    6     2     3    1.1480E+01  2.2515E-01   1.1255E+01  0.000E+00  0.000E+00  0.000E+00  1.06255E+03  7.526E-01  1.200E+01  6.000E-02  1.251E+00
   1    7    6     2     4    1.1255E+01  2.2462E-01   1.1030E+01  0.000E+00  0.000E+00  0.000E+00  1.05782E+03  7.436E-01  1.200E+01  6.000E-02  1.248E+00
   1    8    6     2     5    1.1030E+01  2.2407E-01   1.0806E+01  0.000E+00  0.000E+00  0.000E+00  1.05309E+03  7.346E-01  1.200E+01  6.000E-02  1.245E+00
   1    3    5     3     1    2.0000E+00  2.8252E-01   1.7175E+00  0.000E+00  0.000E+00  0.000E+00  1.07555E+03  1.909E+00  9.636E+00  7.227E-02  1.955E+00
   1    3    6     3     2    1.7175E+00  2.4905E-01   1.4684E+00  0.000E+00  0.000E+00  0.000E+00  1.07264E+03  1.727E+00  8.909E+00  6.682E-02  1.864E+00
   1    3    7     3     3    1.4684E+00  1.9718E-01   1.2712E+00  0.000E+00  0.000E+00  0.000E+00  1.06987E+03  1.555E+00  8.218E+00  5.547E-02  1.777E+00
   1    4    8     3     4    1.2712E+00  2.2567E-01   1.0456E+00  0.000E+00  0.000E+00  0.000E+00  1.06682E+03  1.364E+00  7.455E+00  6.709E-02  1.682E+00
   1    5    8     3     5    1.0456E+00  1.5790E-01   8.8768E-01  0.000E+00  0.000E+00  0.000E+00  1.06362E+03  1.164E+00  6.655E+00  4.991E-02  1.582E+00
   1    6    8     3     6    8.8768E-01  5.5980E-02   8.3170E-01  0.000E+00  0.000E+00  0.000E+00  1.06158E+03  1.036E+00  6.145E+00  1.844E-02  1.518E+00
   1    5   10     4     1    1.0000E+01  9.0919E-02   9.9091E+00  0.000E+00  0.000E+00  0.000E+00  1.07836E+03  6.368E-01  1.000E+01  2.500E-02  1.212E+00
   1    5    9     4     2    9.9091E+00  1.8158E-01   9.7275E+00  0.000E+00  0.000E+00  0.000E+00  1.07154E+03  6.315E-01  1.000E+01  5.000E-02  1.211E+00
   1    6    8     4     3    9.7275E+00  1.2689E-01   9.6006E+00  0.000E+00  0.000E+00  0.000E+00  1.06381E+03  6.256E-01  1.000E+01  3.500E-02  1.209E+00
   1    6    8     5     1    1.0432E+01  2.2686E-09   1.0432E+01  0.000E+00  0.000E+00  0.000E+00  1.05868E+03  6.790E-01  1.542E+01  6.166E-10  1.226E+00
   1    7    7     5     2    1.0432E+01  2.8306E-09   1.0432E+01  0.000E+00  0.000E+00  0.000E+00  1.05418E+03  6.784E-01  1.539E+01  7.695E-10  1.226E+00
   1    8    7     5     3    1.0432E+01  1.9868E-09   1.0432E+01  0.000E+00  0.000E+00  0.000E+00  1.04993E+03  6.794E-01  1.543E+01  5.400E-10  1.226E+00
   1    8    6     5     4    1.0432E+01  1.4217E-09   1.0432E+01  0.000E+00  0.000E+00  0.000E+00  1.04693E+03  6.800E-01  1.545E+01  3.863E-10  1.227E+00
   1    9    6     6     1    2.1239E+01  2.4620E-01   2.0992E+01  0.000E+00  0.000E+00  0.000E+00  1.04383E+03  1.103E+00  1.200E+01  6.000E-02  1.368E+00
   1   10    7     6     2    2.0992E+01  2.4574E-01   2.0747E+01  0.000E+00  0.000E+00  0.000E+00  1.03928E+03  1.096E+00  1.200E+01  6.000E-02  1.365E+00
   1   11    7     6     3    2.0747E+01  2.4527E-01   2.0501E+01  0.000E+00  0.000E+00  0.000E+00  1.03472E+03  1.088E+00  1.200E+01  6.000E-02  1.363E+00
   1   12    7     6     4    2.0501E+01  2.4481E-01   2.0257E+01  0.000E+00  0.000E+00  0.000E+00  1.03017E+03  1.080E+00  1.200E+01  6.000E-02  1.360E+00
   1   13    7     6     5    2.0257E+01  9.7792E-02   2.0159E+01  0.000E+00  0.000E+00  0.000E+00  1.02698E+03  1.075E+00  1.200E+01  2.400E-02  1.358E+00
   1   14    9     7     1    1.5000E+02  2.9539E-08   1.5000E+02  0.000E+00  0.000E+00  0.000E+00  1.03986E+03  2.283E+00  5.528E+01  5.591E-09  1.761E+00
   1   13    8     7     2    1.5000E+02  3.2486E-14   1.5000E+02  0.000E+00  0.000E+00  0.000E+00  1.03478E+03  2.283E+00  5.527E+01  6.150E-15  1.761E+00
   1   13    7     7     3    1.5000E+02  2.9539E-08   1.5000E+02  0.000E+00  0.000E+00  0.000E+00  1.02970E+03  2.283E+00  5.528E+01  5.591E-09  1.761E+00
   1   13    6     8     1    1.7016E+02  2.5867E-12   1.7016E+02  0.000E+00  0.000E+00  0.000E+00  1.02482E+03  2.945E+00  4.270E+01  4.351E-13  1.982E+00
   1   13    5     8     2    1.7016E+02  2.5867E-15   1.7016E+02  0.000E+00  0.000E+00  0.000E+00  1.01857E+03  2.945E+00  4.270E+01  4.351E-16  1.982E+00
   1   13    4     8     3    1.7016E+02  1.6602E-16   1.7016E+02  0.000E+00  0.000E+00  0.000E+00  1.01232E+03  2.948E+00  4.274E+01  4.356E-17  1.271E+00
   1   13    3     8     4    1.7016E+02  3.7737E-08   1.7016E+02  0.000E+00  0.000E+00  0.000E+00  1.00608E+03  2.952E+00  4.280E+01  4.362E-08  2.884E-01
   1   13    2     8     5    1.7016E+02 -3.6748E-01   1.7053E+02  0.000E+00  0.000E+00  0.000E+00  9.99829E+02  2.954E+00  4.284E+01  4.365E+00 -2.806E-02
   1   13    1     8     6    1.7053E+02 -7.3492E-01   1.7126E+02  0.000E+00  0.000E+00  0.000E+00  9.94833E+02  2.958E+00  4.289E+01  2.622E+00 -9.341E-02
   1    6    8     9     1    1.3137E-07  0.0000E+00   1.3137E-07  0.000E+00  0.000E+00  0.000E+00  1.07850E+03  1.012E-05  4.000E+00  0.000E+00  1.000E+00





UNSATURATED ZONE PACKAGE VOLUMETRIC BUDGET FOR  TIME STEP    30 STRESS PERIOD   20
  ------------------------------------------------------------------------------



     CUMULATIVE VOLUMES      L**3       RATES FOR THIS TIME STEP      L**3/T
     ------------------                 ------------------------

           IN:                                      IN:
           ---                                      ---
        INFILTRATION =   101324877.5937          INFILTRATION =           0.8475

          OUT:                                     OUT:
          ----                                     ----
              UZF ET =   601114065.1857                UZF ET =           3.9924
        UZF RECHARGE =  1319690656.1196          UZF RECHARGE =          23.8067

            IN - OUT = -1819479843.7117              IN - OUT =         -26.9516

          STORAGE:                                 STORAGE:
          --------                                 --------
      STORAGE CHANGE = -1819465284.8801        STORAGE CHANGE =         -26.9516

 PERCENT DISCREPANCY IS DIFFERENCE BETWEEN IN-OUT MINUS CHANGE IN STORAGE
 DIVIDED BY THE AVERAGE OF IN AND OUT TIMES 100

 PERCENT DISCREPANCY =          -0.00     PERCENT DISCREPANCY =           0.00






1
  VOLUMETRIC BUDGET FOR ENTIRE MODEL AT END OF TIME STEP   30, STRESS PERIOD  20
  ------------------------------------------------------------------------------

     CUMULATIVE VOLUMES      L**3       RATES FOR THIS TIME STEP      L**3/T
     ------------------                 ------------------------

           IN:                                      IN:
           ---                                      ---
             STORAGE =    30812332.0000               STORAGE =           1.1125
       CONSTANT HEAD =           0.0000         CONSTANT HEAD =           0.0000
               WELLS =           0.0000                 WELLS =           0.0000
     HEAD DEP BOUNDS =    54040476.0000       HEAD DEP BOUNDS =           0.9840
      STREAM LEAKAGE =   209427696.0000        STREAM LEAKAGE =           3.8412
        UZF RECHARGE =  1319690624.0000          UZF RECHARGE =          23.8067
               GW ET =           0.0000                 GW ET =           0.0000
     SURFACE LEAKAGE =           0.0000       SURFACE LEAKAGE =           0.0000

            TOTAL IN =  1613971200.0000              TOTAL IN =          29.7444

          OUT:                                     OUT:
          ----                                     ----
             STORAGE =  1400291584.0000               STORAGE =          23.8761
       CONSTANT HEAD =           0.0000         CONSTANT HEAD =           0.0000
               WELLS =     5830234.0000                 WELLS =           0.0000
     HEAD DEP BOUNDS =    14977764.0000       HEAD DEP BOUNDS =           0.2703
      STREAM LEAKAGE =   134597248.0000        STREAM LEAKAGE =           1.1024
        UZF RECHARGE =           0.0000          UZF RECHARGE =           0.0000
               GW ET =    58110988.0000                 GW ET =           4.4923
     SURFACE LEAKAGE =           0.0000       SURFACE LEAKAGE =           0.0000

           TOTAL OUT =  1613807872.0000             TOTAL OUT =          29.7411

            IN - OUT =      163328.0000              IN - OUT =       3.3741E-03

 PERCENT DISCREPANCY =           0.01     PERCENT DISCREPANCY =           0.01






         TIME SUMMARY AT END OF TIME STEP   30 IN STRESS PERIOD   20
                    SECONDS     MINUTES      HOURS       DAYS        YEARS
                    -----------------------------------------------------------
   TIME STEP LENGTH  87600.      1460.0      24.333      1.0139     2.77588E-03
 STRESS PERIOD TIME 2.62800E+06  43800.      730.00      30.417     8.32763E-02
         TOTAL TIME 5.25600E+07 8.76000E+05  14600.      608.33      1.6655    
1
1
                            STRESS PERIOD NO.   21, LENGTH =   2628000.    
                            -----------------------------------------------

                              NUMBER OF TIME STEPS =    30

                               MULTIPLIER FOR DELT =     1.000

                            INITIAL TIME STEP SIZE =   87600.00    

 WELL NO.  LAYER   ROW   COL   STRESS RATE         
 --------------------------------------------------
      1      1      6      4       0.000    
      2      1      6      7       0.000    
      3      1      7      4       0.000    
      4      1      7      5       0.000    
      5      1      8      4       0.000    
      6      1      8      5       0.000    
      7      1      9      4       0.000    
      8      1      9      5       0.000    
      9      1     10      4       0.000    
     10      1     10      5       0.000    

     10 WELLS

 REUSING NON-PARAMETER GHB CELLS FROM LAST STRESS PERIOD

      2 GHB CELLS

 REUSING STREAM SEGMENT DATA FROM LAST STRESS PERIOD



            AREAL INFILTRATION RATE
 READING ON UNIT   19 WITH FORMAT: (10F4.0)            

            1           2           3           4           5           6           7           8           9          10
 ........................................................................................................................
   1   1.0000E-10  2.0000E-10   0.000       0.000       0.000       0.000       0.000       0.000       0.000       0.000    
   2   2.0000E-10  1.0000E-10  2.0000E-10   0.000       0.000      8.0000E-10  8.0000E-10  5.0000E-10   0.000       0.000    
   3    0.000      5.0000E-10  1.0000E-10  1.0000E-10  8.0000E-10  8.0000E-10  5.0000E-10  5.0000E-10   0.000       0.000    
   4   8.0000E-10  5.0000E-10  1.0000E-10  1.0000E-10  1.0000E-10  1.0000E-10  1.0000E-10  1.0000E-10  2.0000E-10   0.000    
   5   8.0000E-10  5.0000E-10  1.0000E-10  1.0000E-10  1.0000E-10  1.0000E-10  1.0000E-10  1.0000E-10  1.0000E-10  1.0000E-10
   6   8.0000E-10  5.0000E-10  5.0000E-10  2.0000E-10  2.0000E-10  1.0000E-10  1.0000E-10  1.0000E-10  1.0000E-10  5.0000E-10
   7   8.0000E-10  5.0000E-10  5.0000E-10  2.0000E-10  2.0000E-10  1.0000E-10  1.0000E-10  2.0000E-10  2.0000E-10   0.000    
   8    0.000      5.0000E-10  5.0000E-10  2.0000E-10  2.0000E-10  1.0000E-10  1.0000E-10  2.0000E-10  5.0000E-10   0.000    
   9    0.000      5.0000E-10  5.0000E-10  2.0000E-10  2.0000E-10  1.0000E-10  1.0000E-10  2.0000E-10  5.0000E-10   0.000    
  10    0.000      5.0000E-10  5.0000E-10  2.0000E-10  2.0000E-10  1.0000E-10  1.0000E-10  2.0000E-10  5.0000E-10  8.0000E-10
  11    0.000      1.0000E-10  1.0000E-10  1.0000E-10  1.0000E-10  1.0000E-10  1.0000E-10  2.0000E-10  5.0000E-10   0.000    
  12   1.0000E-10  1.0000E-10  1.0000E-10  1.0000E-10  1.0000E-10  1.0000E-10  1.0000E-10  1.0000E-10  2.0000E-10   0.000    
  13   1.0000E-10  1.0000E-10  2.0000E-10  2.0000E-10  2.0000E-10  2.0000E-10  2.0000E-10  1.0000E-10  1.0000E-10   0.000    
  14    0.000      2.0000E-10  5.0000E-10  5.0000E-10  5.0000E-10  5.0000E-10  5.0000E-10  2.0000E-10  1.0000E-10   0.000    
  15    0.000       0.000      8.0000E-10  8.0000E-10  8.0000E-10  8.0000E-10   0.000       0.000       0.000       0.000    

                  ET RATE =  8.500000E-08

 USING ET EXTINCTION DEPTH FROM PREVIOUS STRESS PERIOD. CURRENT PERIOD IS:      21

 USING EXTINCTION WATER CONTENT FROM PREVIOUS STRESS PERIOD. CURRENT PERIOD IS:      21
 
 SOLVING FOR HEAD 
                                                   Max.-Head-Change                         Max.-Flux-Residual
  Residual-Control   Outer-Iter.   Inner-Iter.     Column Row Layer    Maximum-Head-Change  Column Row Layer    Maximum-Flux-Residual          L2-NORM 
          0                 1           2             7    6     1      -0.2843035461E+00       7    6    1        -0.1552646530E+02      0.1570113481E+02
          0                 2           2             7    6     1       0.3160631011E+00       7    6    1         0.1740326633E+02      0.1740814889E+02
          0                 3           2             7    6     1      -0.1731304354E-01       7    6    1        -0.9629729326E+00      0.9787028808E+00
          0                 4           2             7    6     1      -0.3037425378E-02       7    6    1        -0.1690640656E+00      0.1796256359E+00
          0                 5           2             7    6     1      -0.5357815769E-03       7    6    1        -0.2979492728E-01      0.3987793619E-01
          0                 6           1             8    2     1       0.9752129613E-04       7    6    1        -0.5258001475E-02      0.1295837287E-01
          0                 7           1             8    2     1       0.4383637981E-04       8    2    1         0.1138330675E-02      0.5381607534E-02
          0                 8           1             8    2     1       0.1970468528E-04       8    2    1         0.5116860597E-03      0.2378665915E-02
          0                 9           1             8    2     1       0.8857352578E-05       8    2    1         0.2300055620E-03      0.1062833753E-02

    ------------------------------------------------
       NWT REQUIRED            9 OUTER ITERATIONS 
       AND A TOTAL OF         14 INNER ITERATIONS.
    ------------------------------------------------

 NO OUTPUT CONTROL FOR STRESS PERIOD   21   TIME STEP    1
 
 SOLVING FOR HEAD 
                                                   Max.-Head-Change                         Max.-Flux-Residual
  Residual-Control   Outer-Iter.   Inner-Iter.     Column Row Layer    Maximum-Head-Change  Column Row Layer    Maximum-Flux-Residual          L2-NORM 
          0                 1           2             7    6     1      -0.2845225857E+00       7    6    1        -0.1553832673E+02      0.1571192308E+02
          0                 2           2             7    6     1       0.3160839652E+00       7    6    1         0.1740445137E+02      0.1740931096E+02
          0                 3           2             7    6     1      -0.1735836657E-01       7    6    1        -0.9654808972E+00      0.9811115434E+00
          0                 4           2             7    6     1      -0.3053080459E-02       7    6    1        -0.1699382213E+00      0.1804453923E+00
          0                 5           2             7    6     1      -0.5385303023E-03       7    6    1        -0.2994821741E-01      0.3998244881E-01
          0                 6           1             8    2     1       0.9748034519E-04       7    6    1        -0.5284937233E-02      0.1296275861E-01
          0                 7           1             8    2     1       0.4381795262E-04       8    2    1         0.1137852574E-02      0.5379191561E-02
          0                 8           1             8    2     1       0.1969639348E-04       8    2    1         0.5114709220E-03      0.2377228182E-02
          0                 9           1             8    2     1       0.8853621421E-05       8    2    1         0.2299087536E-03      0.1062155261E-02

    ------------------------------------------------
       NWT REQUIRED            9 OUTER ITERATIONS 
       AND A TOTAL OF         14 INNER ITERATIONS.
    ------------------------------------------------

 NO OUTPUT CONTROL FOR STRESS PERIOD   21   TIME STEP    2
 
 SOLVING FOR HEAD 
                                                   Max.-Head-Change                         Max.-Flux-Residual
  Residual-Control   Outer-Iter.   Inner-Iter.     Column Row Layer    Maximum-Head-Change  Column Row Layer    Maximum-Flux-Residual          L2-NORM 
          0                 1           2             7    6     1      -0.2847282888E+00       7    6    1        -0.1554959524E+02      0.1571578026E+02
          0                 2           2             7    6     1       0.3161041832E+00       7    6    1         0.1740557734E+02      0.1741037131E+02
          0                 3           2             7    6     1      -0.1740072311E-01       7    6    1        -0.9678281469E+00      0.9833851691E+00
          0                 4           2             7    6     1      -0.3072565140E-02       7    6    1        -0.1707376373E+00      0.1811983551E+00
          0                 5           2             7    6     1      -0.5370929897E-03       7    6    1        -0.2986580598E-01      0.3990919185E-01
          0                 6           1             8    2     1       0.9743941052E-04       7    6    1        -0.5271059292E-02      0.1295078152E-01
          0                 7           1             8    2     1       0.4379953270E-04       8    2    1         0.1137374667E-02      0.5375610459E-02
          0                 8           1             8    2     1       0.1968810455E-04       8    2    1         0.5112558699E-03      0.2375717216E-02
          0                 9           1             8    2     1       0.8849891640E-05       8    2    1         0.2298119867E-03      0.1061474005E-02

    ------------------------------------------------
       NWT REQUIRED            9 OUTER ITERATIONS 
       AND A TOTAL OF         14 INNER ITERATIONS.
    ------------------------------------------------

 NO OUTPUT CONTROL FOR STRESS PERIOD   21   TIME STEP    3
 
 SOLVING FOR HEAD 
                                                   Max.-Head-Change                         Max.-Flux-Residual
  Residual-Control   Outer-Iter.   Inner-Iter.     Column Row Layer    Maximum-Head-Change  Column Row Layer    Maximum-Flux-Residual          L2-NORM 
          0                 1           2             7    6     1      -0.2849207460E+00       7    6    1        -0.1556013428E+02      0.1571968332E+02
          0                 2           2             7    6     1       0.3161230608E+00       7    6    1         0.1740663047E+02      0.1741136531E+02
          0                 3           2             7    6     1      -0.1744034082E-01       7    6    1        -0.9700235552E+00      0.9855110183E+00
          0                 4           2             7    6     1      -0.3079599215E-02       7    6    1        -0.1711272132E+00      0.1815528576E+00
          0                 5           2             7    6     1      -0.5445024525E-03       7    6    1        -0.3023141005E-01      0.4017677148E-01
          0                 6           1             8    2     1       0.9739850123E-04       7    6    1        -0.5347438052E-02      0.1297584824E-01
          0                 7           1             8    2     1       0.4378112452E-04       8    2    1         0.1136897054E-02      0.5375236678E-02
          0                 8           1             8    2     1       0.1967982162E-04       8    2    1         0.5110409575E-03      0.2374508975E-02
          0                 9           1             8    2     1       0.8846164486E-05       8    2    1         0.2297152794E-03      0.1060838915E-02

    ------------------------------------------------
       NWT REQUIRED            9 OUTER ITERATIONS 
       AND A TOTAL OF         14 INNER ITERATIONS.
    ------------------------------------------------

 NO OUTPUT CONTROL FOR STRESS PERIOD   21   TIME STEP    4
 
 SOLVING FOR HEAD 
                                                   Max.-Head-Change                         Max.-Flux-Residual
  Residual-Control   Outer-Iter.   Inner-Iter.     Column Row Layer    Maximum-Head-Change  Column Row Layer    Maximum-Flux-Residual          L2-NORM 
          0                 1           2             7    6     1      -0.2855726968E+00       7    6    1        -0.1556998580E+02      0.1572356525E+02
          0                 2           2             7    6     1       0.3166564936E+00       7    6    1         0.1743632182E+02      0.1744102337E+02
          0                 3           2             7    6     1      -0.1751346780E-01       7    6    1        -0.9740393091E+00      0.9892520321E+00
          0                 4           2             7    6     1      -0.3092754539E-02       7    6    1        -0.1718499294E+00      0.1822030225E+00
          0                 5           2             7    6     1      -0.5468675818E-03       7    6    1        -0.3036138628E-01      0.4026337749E-01
          0                 6           1             8    2     1       0.9735760370E-04       7    6    1        -0.5370800144E-02      0.1297914037E-01
          0                 7           1             8    2     1       0.4376272123E-04       8    2    1         0.1136419582E-02      0.5372838873E-02
          0                 8           1             8    2     1       0.1967154044E-04       8    2    1         0.5108261032E-03      0.2373107063E-02
          0                 9           1             8    2     1       0.8842438081E-05       8    2    1         0.2296186000E-03      0.1060178403E-02

    ------------------------------------------------
       NWT REQUIRED            9 OUTER ITERATIONS 
       AND A TOTAL OF         14 INNER ITERATIONS.
    ------------------------------------------------

 NO OUTPUT CONTROL FOR STRESS PERIOD   21   TIME STEP    5
 
 SOLVING FOR HEAD 
                                                   Max.-Head-Change                         Max.-Flux-Residual
  Residual-Control   Outer-Iter.   Inner-Iter.     Column Row Layer    Maximum-Head-Change  Column Row Layer    Maximum-Flux-Residual          L2-NORM 
          0                 1           2             7    6     1      -0.2857357800E+00       7    6    1        -0.1557889547E+02      0.1572708397E+02
          0                 2           2             7    6     1       0.3166662581E+00       7    6    1         0.1743687071E+02      0.1744152377E+02
          0                 3           2             7    6     1      -0.1754780782E-01       7    6    1        -0.9759426285E+00      0.9910974420E+00
          0                 4           2             7    6     1      -0.3098849838E-02       7    6    1        -0.1721875733E+00      0.1825089861E+00
          0                 5           2             7    6     1      -0.5479503193E-03       7    6    1        -0.3042133250E-01      0.4029855776E-01
          0                 6           1             8    2     1       0.9731673743E-04       7    6    1        -0.5381451163E-02      0.1297721913E-01
          0                 7           1             8    2     1       0.4374433294E-04       8    2    1         0.1135942473E-02      0.5370038703E-02
          0                 8           1             8    2     1       0.1966326652E-04       8    2    1         0.5106114206E-03      0.2371679591E-02
          0                 9           1             8    2     1       0.8838715053E-05       8    2    1         0.2295220007E-03      0.1059518284E-02

    ------------------------------------------------
       NWT REQUIRED            9 OUTER ITERATIONS 
       AND A TOTAL OF         14 INNER ITERATIONS.
    ------------------------------------------------

 NO OUTPUT CONTROL FOR STRESS PERIOD   21   TIME STEP    6
 
 SOLVING FOR HEAD 
                                                   Max.-Head-Change                         Max.-Flux-Residual
  Residual-Control   Outer-Iter.   Inner-Iter.     Column Row Layer    Maximum-Head-Change  Column Row Layer    Maximum-Flux-Residual          L2-NORM 
          0                 1           2             7    6     1      -0.2858891445E+00       7    6    1        -0.1558727154E+02      0.1573056978E+02
          0                 2           2             7    6     1       0.3166753817E+00       7    6    1         0.1743738513E+02      0.1744199349E+02
          0                 3           2             7    6     1      -0.1758008821E-01       7    6    1        -0.9777317461E+00      0.9928299196E+00
          0                 4           2             7    6     1      -0.3104579777E-02       7    6    1        -0.1725049719E+00      0.1827944297E+00
          0                 5           2             7    6     1      -0.5489681896E-03       7    6    1        -0.3047768637E-01      0.4032974633E-01
          0                 6           1             8    2     1       0.9727506030E-04       7    6    1        -0.5391464203E-02      0.1297427238E-01
          0                 7           1             8    2     1       0.4372558024E-04       8    2    1         0.1135455903E-02      0.5366874133E-02
          0                 8           1             8    2     1       0.1965482890E-04       8    2    1         0.5103924908E-03      0.2370108288E-02
          0                 9           1             8    2     1       0.8834918618E-05       8    2    1         0.2294234944E-03      0.1058799337E-02

    ------------------------------------------------
       NWT REQUIRED            9 OUTER ITERATIONS 
       AND A TOTAL OF         14 INNER ITERATIONS.
    ------------------------------------------------

 NO OUTPUT CONTROL FOR STRESS PERIOD   21   TIME STEP    7
 
 SOLVING FOR HEAD 
                                                   Max.-Head-Change                         Max.-Flux-Residual
  Residual-Control   Outer-Iter.   Inner-Iter.     Column Row Layer    Maximum-Head-Change  Column Row Layer    Maximum-Flux-Residual          L2-NORM 
          0                 1           2             7    6     1      -0.2860332398E+00       7    6    1        -0.1559513914E+02      0.1573400624E+02
          0                 2           2             7    6     1       0.3166838891E+00       7    6    1         0.1743786632E+02      0.1744243436E+02
          0                 3           2             7    6     1      -0.1761039779E-01       7    6    1        -0.9794115946E+00      0.9944570882E+00
          0                 4           2             7    6     1      -0.3109960079E-02       7    6    1        -0.1728029974E+00      0.1830628155E+00
          0                 5           2             7    6     1      -0.5499239778E-03       7    6    1        -0.3053060233E-01      0.4035918554E-01
          0                 6           1             7    6     1      -0.9735428547E-04       7    6    1        -0.5400866628E-02      0.1297149977E-01
          0                 7           1             8    2     1       0.4370721471E-04       8    2    1         0.1134979378E-02      0.5363865695E-02
          0                 8           1             8    2     1       0.1964656523E-04       8    2    1         0.5101780766E-03      0.2368603741E-02
          0                 9           1             8    2     1       0.8831200717E-05       8    2    1         0.2293270195E-03      0.1058107152E-02

    ------------------------------------------------
       NWT REQUIRED            9 OUTER ITERATIONS 
       AND A TOTAL OF         14 INNER ITERATIONS.
    ------------------------------------------------

 NO OUTPUT CONTROL FOR STRESS PERIOD   21   TIME STEP    8
 
 SOLVING FOR HEAD 
                                                   Max.-Head-Change                         Max.-Flux-Residual
  Residual-Control   Outer-Iter.   Inner-Iter.     Column Row Layer    Maximum-Head-Change  Column Row Layer    Maximum-Flux-Residual          L2-NORM 
          0                 1           2             7    6     1      -0.2861689440E+00       7    6    1        -0.1560254642E+02      0.1573742591E+02
          0                 2           2             7    6     1       0.3166918478E+00       7    6    1         0.1743831794E+02      0.1744285253E+02
          0                 3           2             7    6     1      -0.1763893073E-01       7    6    1        -0.9809929428E+00      0.9959958224E+00
          0                 4           2             7    6     1      -0.3114879304E-02       7    6    1        -0.1730835583E+00      0.1833455140E+00
          0                 5           2             7    6     1      -0.5507141553E-03       7    6    1        -0.3057817624E-01      0.4039462026E-01
          0                 6           1             7    6     1      -0.9747056584E-04       7    6    1        -0.5408257336E-02      0.1296998684E-01
          0                 7           1             8    2     1       0.4368885531E-04       8    2    1         0.1134503028E-02      0.5361334208E-02
          0                 8           1             8    2     1       0.1963830431E-04       8    2    1         0.5099637382E-03      0.2367282239E-02
          0                 9           1             8    2     1       0.8827483567E-05       8    2    1         0.2292305743E-03      0.1057480201E-02

    ------------------------------------------------
       NWT REQUIRED            9 OUTER ITERATIONS 
       AND A TOTAL OF         14 INNER ITERATIONS.
    ------------------------------------------------

 NO OUTPUT CONTROL FOR STRESS PERIOD   21   TIME STEP    9
 
 SOLVING FOR HEAD 
                                                   Max.-Head-Change                         Max.-Flux-Residual
  Residual-Control   Outer-Iter.   Inner-Iter.     Column Row Layer    Maximum-Head-Change  Column Row Layer    Maximum-Flux-Residual          L2-NORM 
          0                 1           2             7    6     1      -0.2862444909E+00       7    6    1        -0.1560949297E+02      0.1574842508E+02
          0                 2           2             7    6     1       0.3167120079E+00       7    6    1         0.1743873686E+02      0.1744342182E+02
          0                 3           2             7    6     1      -0.1764415684E-01       7    6    1        -0.9815412292E+00      0.9980472091E+00
          0                 4           2             7    6     1      -0.3114078600E-02       7    6    1        -0.1731090872E+00      0.1837347533E+00
          0                 5           2             7    6     1      -0.5501647944E-03       7    6    1        -0.3056331804E-01      0.4044538280E-01
          0                 6           1             7    6     1      -0.9728222329E-04       7    6    1        -0.5401298773E-02      0.1297314877E-01
          0                 7           1             8    2     1       0.4367013712E-04       8    2    1         0.1134017333E-02      0.5360705660E-02
          0                 8           1             8    2     1       0.1962988257E-04       8    2    1         0.5097452075E-03      0.2366792223E-02
          0                 9           1             8    2     1       0.8823694134E-05       8    2    1         0.2291322495E-03      0.1057221034E-02

    ------------------------------------------------
       NWT REQUIRED            9 OUTER ITERATIONS 
       AND A TOTAL OF         14 INNER ITERATIONS.
    ------------------------------------------------

 NO OUTPUT CONTROL FOR STRESS PERIOD   21   TIME STEP   10
 
 SOLVING FOR HEAD 
                                                   Max.-Head-Change                         Max.-Flux-Residual
  Residual-Control   Outer-Iter.   Inner-Iter.     Column Row Layer    Maximum-Head-Change  Column Row Layer    Maximum-Flux-Residual          L2-NORM 
          0                 1           2             7    6     1      -0.2862932022E+00       7    6    1        -0.1561203144E+02      0.1574732917E+02
          0                 2           2             7    6     1       0.3167107741E+00       7    6    1         0.1743871495E+02      0.1744336016E+02
          0                 3           2             7    6     1      -0.1765227384E-01       7    6    1        -0.9819839204E+00      0.9984174532E+00
          0                 4           2             7    6     1      -0.3115560178E-02       7    6    1        -0.1731896400E+00      0.1837929025E+00
          0                 5           2             7    6     1      -0.5504366652E-03       7    6    1        -0.3057804499E-01      0.4044806885E-01
          0                 6           1             7    6     1      -0.9733242117E-04       7    6    1        -0.5404006451E-02      0.1296967952E-01
          0                 7           1             8    2     1       0.4365180198E-04       8    2    1         0.1133541597E-02      0.5358543144E-02
          0                 8           1             8    2     1       0.1962163241E-04       8    2    1         0.5095311479E-03      0.2365744405E-02
          0                 9           1             8    2     1       0.8819982236E-05       8    2    1         0.2290359372E-03      0.1056730466E-02

    ------------------------------------------------
       NWT REQUIRED            9 OUTER ITERATIONS 
       AND A TOTAL OF         14 INNER ITERATIONS.
    ------------------------------------------------

 NO OUTPUT CONTROL FOR STRESS PERIOD   21   TIME STEP   11
 
 SOLVING FOR HEAD 
                                                   Max.-Head-Change                         Max.-Flux-Residual
  Residual-Control   Outer-Iter.   Inner-Iter.     Column Row Layer    Maximum-Head-Change  Column Row Layer    Maximum-Flux-Residual          L2-NORM 
          0                 1           2             7    6     1      -0.2863423336E+00       7    6    1        -0.1561460103E+02      0.1574652765E+02
          0                 2           2             7    6     1       0.3167097400E+00       7    6    1         0.1743870219E+02      0.1744329844E+02
          0                 3           2             7    6     1      -0.1766056039E-01       7    6    1        -0.9824364270E+00      0.9987969090E+00
          0                 4           2             7    6     1      -0.3117069535E-02       7    6    1        -0.1732718176E+00      0.1838508065E+00
          0                 5           2             7    6     1      -0.5507129895E-03       7    6    1        -0.3059303645E-01      0.4044927237E-01
          0                 6           1             7    6     1      -0.9738330893E-04       7    6    1        -0.5406756097E-02      0.1296533868E-01
          0                 7           1             8    2     1       0.4363310856E-04       8    2    1         0.1133056536E-02      0.5356030071E-02
          0                 8           1             8    2     1       0.1961322193E-04       8    2    1         0.5093129101E-03      0.2364564806E-02
          0                 9           1             8    2     1       0.8816198306E-05       8    2    1         0.2289377486E-03      0.1056203329E-02

    ------------------------------------------------
       NWT REQUIRED            9 OUTER ITERATIONS 
       AND A TOTAL OF         14 INNER ITERATIONS.
    ------------------------------------------------

 NO OUTPUT CONTROL FOR STRESS PERIOD   21   TIME STEP   12
 
 SOLVING FOR HEAD 
                                                   Max.-Head-Change                         Max.-Flux-Residual
  Residual-Control   Outer-Iter.   Inner-Iter.     Column Row Layer    Maximum-Head-Change  Column Row Layer    Maximum-Flux-Residual          L2-NORM 
          0                 1           2             7    6     1      -0.2863916553E+00       7    6    1        -0.1561718872E+02      0.1574613172E+02
          0                 2           2             7    6     1       0.3167088807E+00       7    6    1         0.1743869732E+02      0.1744327473E+02
          0                 3           2             7    6     1      -0.1766896287E-01       7    6    1        -0.9828957529E+00      0.9991913335E+00
          0                 4           2             7    6     1      -0.3118597295E-02       7    6    1        -0.1733550953E+00      0.1839116938E+00
          0                 5           2             7    6     1      -0.5509921302E-03       7    6    1        -0.3060820075E-01      0.4045161144E-01
          0                 6           1             7    6     1      -0.9743460241E-04       7    6    1        -0.5409531769E-02      0.1296148731E-01
          0                 7           1             8    2     1       0.4361442939E-04       8    2    1         0.1132571841E-02      0.5353710048E-02
          0                 8           1             8    2     1       0.1960481832E-04       8    2    1         0.5090948434E-03      0.2363456645E-02
          0                 9           1             8    2     1       0.8812417128E-05       8    2    1         0.2288396369E-03      0.1055687043E-02

    ------------------------------------------------
       NWT REQUIRED            9 OUTER ITERATIONS 
       AND A TOTAL OF         14 INNER ITERATIONS.
    ------------------------------------------------

 NO OUTPUT CONTROL FOR STRESS PERIOD   21   TIME STEP   13
 
 SOLVING FOR HEAD 
                                                   Max.-Head-Change                         Max.-Flux-Residual
  Residual-Control   Outer-Iter.   Inner-Iter.     Column Row Layer    Maximum-Head-Change  Column Row Layer    Maximum-Flux-Residual          L2-NORM 
          0                 1           2             7    6     1      -0.2864409712E+00       7    6    1        -0.1561978297E+02      0.1574673511E+02
          0                 2           2             7    6     1       0.3167081718E+00       7    6    1         0.1743869917E+02      0.1744325317E+02
          0                 3           2             7    6     1      -0.1767743561E-01       7    6    1        -0.9833593325E+00      0.9995922497E+00
          0                 4           2             7    6     1      -0.3120135531E-02       7    6    1        -0.1734390275E+00      0.1839740146E+00
          0                 5           2             7    6     1      -0.5512727164E-03       7    6    1        -0.3062346062E-01      0.4045423703E-01
          0                 6           1             7    6     1      -0.9748606534E-04       7    6    1        -0.5412320097E-02      0.1295764468E-01
          0                 7           1             8    2     1       0.4359575622E-04       8    2    1         0.1132087318E-02      0.5351360057E-02
          0                 8           1             8    2     1       0.1959641672E-04       8    2    1         0.5088768395E-03      0.2362329133E-02
          0                 9           1             8    2     1       0.8808637324E-05       8    2    1         0.2287415510E-03      0.1055167005E-02

    ------------------------------------------------
       NWT REQUIRED            9 OUTER ITERATIONS 
       AND A TOTAL OF         14 INNER ITERATIONS.
    ------------------------------------------------

 NO OUTPUT CONTROL FOR STRESS PERIOD   21   TIME STEP   14
 
 SOLVING FOR HEAD 
                                                   Max.-Head-Change                         Max.-Flux-Residual
  Residual-Control   Outer-Iter.   Inner-Iter.     Column Row Layer    Maximum-Head-Change  Column Row Layer    Maximum-Flux-Residual          L2-NORM 
          0                 1           2             7    6     1      -0.2864901086E+00       7    6    1        -0.1562237406E+02      0.1574747730E+02
          0                 2           2             7    6     1       0.3167075943E+00       7    6    1         0.1743870677E+02      0.1744323904E+02
          0                 3           2             7    6     1      -0.1768593766E-01       7    6    1        -0.9838248819E+00      0.9999979716E+00
          0                 4           2             7    6     1      -0.3121677050E-02       7    6    1        -0.1735232130E+00      0.1840373490E+00
          0                 5           2             7    6     1      -0.5515534848E-03       7    6    1        -0.3063874558E-01      0.4045726838E-01
          0                 6           1             7    6     1      -0.9753747486E-04       7    6    1        -0.5415108594E-02      0.1295403077E-01
          0                 7           1             8    2     1       0.4357747486E-04       8    2    1         0.1131612954E-02      0.5349128143E-02
          0                 8           1             8    2     1       0.1958819144E-04       8    2    1         0.5086634127E-03      0.2361257817E-02
          0                 9           1             8    2     1       0.8804936681E-05       8    2    1         0.2286455286E-03      0.1054673013E-02

    ------------------------------------------------
       NWT REQUIRED            9 OUTER ITERATIONS 
       AND A TOTAL OF         14 INNER ITERATIONS.
    ------------------------------------------------

 NO OUTPUT CONTROL FOR STRESS PERIOD   21   TIME STEP   15
 
 SOLVING FOR HEAD 
                                                   Max.-Head-Change                         Max.-Flux-Residual
  Residual-Control   Outer-Iter.   Inner-Iter.     Column Row Layer    Maximum-Head-Change  Column Row Layer    Maximum-Flux-Residual          L2-NORM 
          0                 1           2             7    6     1      -0.2865388020E+00       7    6    1        -0.1562494695E+02      0.1574830801E+02
          0                 2           2             7    6     1       0.3167071177E+00       7    6    1         0.1743871855E+02      0.1744322831E+02
          0                 3           2             7    6     1      -0.1769440553E-01       7    6    1        -0.9842888546E+00      0.1000401678E+01
          0                 4           2             7    6     1      -0.3123210742E-02       7    6    1        -0.1736070304E+00      0.1840989821E+00
          0                 5           2             7    6     1      -0.5518324936E-03       7    6    1        -0.3065394695E-01      0.4045896713E-01
          0                 6           1             7    6     1      -0.9758849131E-04       7    6    1        -0.5417877819E-02      0.1294966336E-01
          0                 7           1             8    2     1       0.4355883421E-04       8    2    1         0.1131129242E-02      0.5346563827E-02
          0                 8           1             8    2     1       0.1957980509E-04       8    2    1         0.5084457894E-03      0.2360049577E-02
          0                 9           1             8    2     1       0.8801163631E-05       8    2    1         0.2285476189E-03      0.1054122570E-02

    ------------------------------------------------
       NWT REQUIRED            9 OUTER ITERATIONS 
       AND A TOTAL OF         14 INNER ITERATIONS.
    ------------------------------------------------

 NO OUTPUT CONTROL FOR STRESS PERIOD   21   TIME STEP   16
 
 SOLVING FOR HEAD 
                                                   Max.-Head-Change                         Max.-Flux-Residual
  Residual-Control   Outer-Iter.   Inner-Iter.     Column Row Layer    Maximum-Head-Change  Column Row Layer    Maximum-Flux-Residual          L2-NORM 
          0                 1           2             7    6     1      -0.2865871658E+00       7    6    1        -0.1562750729E+02      0.1574927956E+02
          0                 2           2             7    6     1       0.2891354520E-01       7    6    1         0.1591827399E+01      0.1640187034E+01
          0                 3           2             8    2     1       0.1066495303E-02       8    2    1         0.2769451991E-01      0.1394559677E+00
          0                 4           2             7    6     1       0.2781283012E-02       7    6    1         0.1530714775E+00      0.1641399315E+00
          0                 5           2             7    6     1       0.2555466766E-02       7    6    1         0.1406699358E+00      0.1431321181E+00
          0                 6           2             7    6     1       0.2583883880E-02       7    6    1         0.1422432043E+00      0.1427538319E+00
          0                 7           2             7    6     1       0.2612863310E-02       7    6    1         0.1438395499E+00      0.1439621626E+00
          0                 8           2             7    6     1       0.2642270986E-02       7    6    1         0.1454577023E+00      0.1455036052E+00
          0                 9           2             7    6     1       0.2672066290E-02       7    6    1         0.1470967634E+00      0.1471277074E+00
          0                10           2             7    6     1       0.2702210325E-02       7    6    1         0.1487548934E+00      0.1487831433E+00
                                                   Max.-Head-Change                         Max.-Flux-Residual
  Residual-Control   Outer-Iter.   Inner-Iter.     Column Row Layer    Maximum-Head-Change  Column Row Layer    Maximum-Flux-Residual          L2-NORM 
          0                11           2             7    6     1       0.2732791340E-02       7    6    1         0.1504370231E+00      0.1504649996E+00
          0                12           2             7    6     1       0.2763783608E-02       7    6    1         0.1521417533E+00      0.1521699540E+00
          0                13           2             7    6     1       0.2795137350E-02       7    6    1         0.1538663481E+00      0.1538948716E+00
          0                14           2             7    6     1       0.2826926284E-02       7    6    1         0.1556148682E+00      0.1556437326E+00
          0                15           2             7    6     1       0.2859161085E-02       7    6    1         0.1573879005E+00      0.1574171235E+00
          0                16           2             7    6     1       0.2891806145E-02       7    6    1         0.1591834842E+00      0.1592130836E+00
          0                17           2             7    6     1       0.2924881986E-02       7    6    1         0.1610027488E+00      0.1610327008E+00
          0                18           2             7    6     1       0.2958421403E-02       7    6    1         0.1628474993E+00      0.1628778271E+00
          0                19           2             7    6     1       0.2992386801E-02       7    6    1         0.1647156649E+00      0.1647463869E+00
          0                20           2             7    6     1       0.3026850852E-02       7    6    1         0.1666112461E+00      0.1666423517E+00
                                                   Max.-Head-Change                         Max.-Flux-Residual
  Residual-Control   Outer-Iter.   Inner-Iter.     Column Row Layer    Maximum-Head-Change  Column Row Layer    Maximum-Flux-Residual          L2-NORM 
          0                21           2             7    6     1       0.3061720402E-02       7    6    1         0.1685291132E+00      0.1685606247E+00
          0                22           2             7    6     1       0.3097142418E-02       7    6    1         0.1704773574E+00      0.1705092731E+00
          0                23           2             7    6     1       0.3132999730E-02       7    6    1         0.1724495262E+00      0.1724818602E+00
          0                24           2             7    6     1       0.3169372182E-02       7    6    1         0.1744500153E+00      0.1744558297E+00
          0                25           2             7    6     1       0.2678098747E-03       7    6    1         0.1471046799E-01      0.1477454567E-01
          0                26           1             7    6     1      -0.2374040588E-04       7    6    1        -0.1327181546E-02      0.1371738474E-02
          0                27           1             7    6     1       0.1926471991E-05       7    6    1         0.1067103588E-03      0.1212426582E-03

    ------------------------------------------------
       NWT REQUIRED           27 OUTER ITERATIONS 
       AND A TOTAL OF         52 INNER ITERATIONS.
    ------------------------------------------------

 NO OUTPUT CONTROL FOR STRESS PERIOD   21   TIME STEP   17
 
 SOLVING FOR HEAD 
                                                   Max.-Head-Change                         Max.-Flux-Residual
  Residual-Control   Outer-Iter.   Inner-Iter.     Column Row Layer    Maximum-Head-Change  Column Row Layer    Maximum-Flux-Residual          L2-NORM 
          0                 1           2             7    6     1      -0.2067607616E+00       7    6    1        -0.1129065859E+02      0.1144384786E+02
          0                 2           2             7    6     1      -0.4616433799E-01       7    6    1        -0.2518875059E+01      0.2549142041E+01
          0                 3           2             7    6     1       0.8703148660E-02       7    6    1         0.4795823654E+00      0.4992021157E+00
          0                 4           2             7    6     1       0.3390066317E-02       7    6    1         0.1866464889E+00      0.1957794581E+00
          0                 5           2             7    6     1       0.3908100351E-02       7    6    1         0.2151543807E+00      0.2167844412E+00
          0                 6           2             7    6     1       0.3900911900E-02       7    6    1         0.2147507457E+00      0.2151104387E+00
          0                 7           2             7    6     1       0.3941312005E-02       7    6    1         0.2169725977E+00      0.2170765221E+00
          0                 8           2             7    6     1       0.3977796114E-02       7    6    1         0.2189790879E+00      0.2190326272E+00
          0                 9           2             7    6     1       0.4015013045E-02       7    6    1         0.2210259168E+00      0.2210697984E+00
          0                10           2             7    6     1       0.4052580070E-02       7    6    1         0.2230919624E+00      0.2231342788E+00
                                                   Max.-Head-Change                         Max.-Flux-Residual
  Residual-Control   Outer-Iter.   Inner-Iter.     Column Row Layer    Maximum-Head-Change  Column Row Layer    Maximum-Flux-Residual          L2-NORM 
          0                11           2             7    6     1       0.4090496930E-02       7    6    1         0.2251772173E+00      0.2252195754E+00
          0                12           2             7    6     1       0.4128798165E-02       7    6    1         0.2272835886E+00      0.2273263321E+00
          0                13           2             7    6     1       0.4167463285E-02       7    6    1         0.2294099504E+00      0.2294531353E+00
          0                14           2             7    6     1       0.4206494107E-02       7    6    1         0.2315564033E+00      0.2316000656E+00
          0                15           2             7    6     1       0.4245907775E-02       7    6    1         0.2337238914E+00      0.2337680369E+00
          0                16           2             7    6     1       0.4285702743E-02       7    6    1         0.2359123290E+00      0.2359569211E+00
          0                17           2             7    6     1       0.4322882484E-02       7    6    1         0.2379567375E+00      0.2379646681E+00
          0                18           2             7    6     1      -0.3852289665E-03       7    6    1        -0.2145003364E-01      0.2153566028E-01
          0                19           1             7    6     1       0.3079394099E-04       7    6    1         0.1721362591E-02      0.1736157975E-02
          0                20           1             7    6     1      -0.2118877214E-05       7    6    1        -0.1211364502E-03      0.1328916988E-03

    ------------------------------------------------
       NWT REQUIRED           20 OUTER ITERATIONS 
       AND A TOTAL OF         38 INNER ITERATIONS.
    ------------------------------------------------

 NO OUTPUT CONTROL FOR STRESS PERIOD   21   TIME STEP   18
 
 SOLVING FOR HEAD 
                                                   Max.-Head-Change                         Max.-Flux-Residual
  Residual-Control   Outer-Iter.   Inner-Iter.     Column Row Layer    Maximum-Head-Change  Column Row Layer    Maximum-Flux-Residual          L2-NORM 
          0                 1           2             7    6     1      -0.1969128406E+00       7    6    1        -0.1074705800E+02      0.1089943940E+02
          0                 2           2             7    6     1       0.2390700408E+00       7    6    1         0.1316500231E+02      0.1317083186E+02
          0                 3           2             7    6     1      -0.2128780857E-01       7    6    1        -0.1184856123E+01      0.1195502789E+01
          0                 4           2             7    6     1       0.1695876468E-02       7    6    1         0.9492267881E-01      0.1120684480E+00
          0                 5           2             8    2     1       0.2153047502E-03       7    6    1        -0.6667606320E-02      0.2714867391E-01
          0                 6           1             8    2     1       0.9678008129E-04       8    2    1         0.2513171136E-02      0.1173494062E-01
          0                 7           1             8    2     1       0.4350287711E-04       8    2    1         0.1129677210E-02      0.5244545960E-02
          0                 8           1             8    2     1       0.1955463029E-04       8    2    1         0.5077925206E-03      0.2346867143E-02
          0                 9           1             8    2     1       0.8789837478E-05       8    2    1         0.2282537122E-03      0.1050481813E-02

    ------------------------------------------------
       NWT REQUIRED            9 OUTER ITERATIONS 
       AND A TOTAL OF         14 INNER ITERATIONS.
    ------------------------------------------------

 NO OUTPUT CONTROL FOR STRESS PERIOD   21   TIME STEP   19
 
 SOLVING FOR HEAD 
                                                   Max.-Head-Change                         Max.-Flux-Residual
  Residual-Control   Outer-Iter.   Inner-Iter.     Column Row Layer    Maximum-Head-Change  Column Row Layer    Maximum-Flux-Residual          L2-NORM 
          0                 1           2             7    6     1      -0.2696326202E+00       7    6    1        -0.1471596357E+02      0.1482611936E+02
          0                 2           2             7    6     1       0.3172730339E+00       7    6    1         0.1747157243E+02      0.1747598215E+02
          0                 3           2             7    6     1      -0.2825240895E-01       7    6    1        -0.1572460244E+01      0.1581905620E+01
          0                 4           2             7    6     1       0.2250454685E-02       7    6    1         0.1259740731E+00      0.1394567172E+00
          0                 5           2             8    2     1       0.2152129260E-03       7    6    1        -0.8849032438E-02      0.2778952303E-01
          0                 6           1             8    2     1       0.9673876858E-04       8    2    1         0.2512099125E-02      0.1173147222E-01
          0                 7           1             8    2     1       0.4348429049E-04       8    2    1         0.1129194904E-02      0.5239239066E-02
          0                 8           1             8    2     1       0.1954626770E-04       8    2    1         0.5075755256E-03      0.2344343741E-02
          0                 9           1             8    2     1       0.8786075307E-05       8    2    1         0.2281560881E-03      0.1049344334E-02

    ------------------------------------------------
       NWT REQUIRED            9 OUTER ITERATIONS 
       AND A TOTAL OF         14 INNER ITERATIONS.
    ------------------------------------------------

 NO OUTPUT CONTROL FOR STRESS PERIOD   21   TIME STEP   20
 
 SOLVING FOR HEAD 
                                                   Max.-Head-Change                         Max.-Flux-Residual
  Residual-Control   Outer-Iter.   Inner-Iter.     Column Row Layer    Maximum-Head-Change  Column Row Layer    Maximum-Flux-Residual          L2-NORM 
          0                 1           2             7    6     1      -0.2706235558E+00       7    6    1        -0.1477102326E+02      0.1487946250E+02
          0                 2           2             7    6     1       0.3173756776E+00       7    6    1         0.1747707898E+02      0.1748143930E+02
          0                 3           2             7    6     1      -0.2826081755E-01       7    6    1        -0.1572955833E+01      0.1582459987E+01
          0                 4           2             7    6     1       0.2251251998E-02       7    6    1         0.1260140791E+00      0.1394853529E+00
          0                 5           2             8    2     1       0.2151211902E-03       7    6    1        -0.8851742222E-02      0.2777390216E-01
          0                 6           1             8    2     1       0.9669749800E-04       8    2    1         0.2511028165E-02      0.1172236400E-01
          0                 7           1             8    2     1       0.4346572324E-04       8    2    1         0.1128713092E-02      0.5235051260E-02
          0                 8           1             8    2     1       0.1953791474E-04       8    2    1         0.5073587661E-03      0.2342461022E-02
          0                 9           1             8    2     1       0.8782317389E-05       8    2    1         0.2280585699E-03      0.1048500441E-02

    ------------------------------------------------
       NWT REQUIRED            9 OUTER ITERATIONS 
       AND A TOTAL OF         14 INNER ITERATIONS.
    ------------------------------------------------

 NO OUTPUT CONTROL FOR STRESS PERIOD   21   TIME STEP   21
 
 SOLVING FOR HEAD 
                                                   Max.-Head-Change                         Max.-Flux-Residual
  Residual-Control   Outer-Iter.   Inner-Iter.     Column Row Layer    Maximum-Head-Change  Column Row Layer    Maximum-Flux-Residual          L2-NORM 
          0                 1           2             7    6     1      -0.2715459646E+00       7    6    1        -0.1482224983E+02      0.1492930607E+02
          0                 2           2             7    6     1       0.3174710723E+00       7    6    1         0.1748220216E+02      0.1748652212E+02
          0                 3           2             7    6     1      -0.2826864767E-01       7    6    1        -0.1573416933E+01      0.1582975469E+01
          0                 4           2             7    6     1       0.2251986928E-02       7    6    1         0.1260510499E+00      0.1395122594E+00
          0                 5           2             8    2     1       0.2150276718E-03       7    6    1        -0.8854248599E-02      0.2775956976E-01
          0                 6           1             8    2     1       0.9665542557E-04       8    2    1         0.2509936386E-02      0.1171394126E-01
          0                 7           1             8    2     1       0.4344679584E-04       8    2    1         0.1128221925E-02      0.5231161619E-02
          0                 8           1             8    2     1       0.1952939984E-04       8    2    1         0.5071378025E-03      0.2340701937E-02
          0                 9           1             8    2     1       0.8778486688E-05       8    2    1         0.2279591637E-03      0.1047710324E-02

    ------------------------------------------------
       NWT REQUIRED            9 OUTER ITERATIONS 
       AND A TOTAL OF         14 INNER ITERATIONS.
    ------------------------------------------------

 NO OUTPUT CONTROL FOR STRESS PERIOD   21   TIME STEP   22
 
 SOLVING FOR HEAD 
                                                   Max.-Head-Change                         Max.-Flux-Residual
  Residual-Control   Outer-Iter.   Inner-Iter.     Column Row Layer    Maximum-Head-Change  Column Row Layer    Maximum-Flux-Residual          L2-NORM 
          0                 1           2             7    6     1      -0.2724052905E+00       7    6    1        -0.1486994926E+02      0.1497593441E+02
          0                 2           2             7    6     1       0.3420348819E-01       7    6    1         0.1884375345E+01      0.1923575040E+01
          0                 3           2             7    6     1       0.4140017272E-02       7    6    1         0.2278085434E+00      0.2658447504E+00
          0                 4           2             7    6     1       0.6846211809E-02       7    6    1         0.3768989439E+00      0.3815022874E+00
          0                 5           2             7    6     1       0.6602510685E-02       7    6    1         0.3634740143E+00      0.3644792887E+00
          0                 6           2             7    6     1       0.6624415442E-02       7    6    1         0.3646797147E+00      0.3649347822E+00
          0                 7           2             7    6     1       0.6622408113E-02       7    6    1         0.3645665337E+00      0.3646724676E+00
          0                 8           2             7    6     1       0.6622600072E-02       7    6    1         0.3645740246E+00      0.3646501725E+00
          0                 9           2             7    6     1       0.6622563046E-02       7    6    1         0.3645687483E+00      0.3646390555E+00
          0                10           2             7    6     1       0.6622582430E-02       7    6    1         0.3645665305E+00      0.3646179832E+00
                                                   Max.-Head-Change                         Max.-Flux-Residual
  Residual-Control   Outer-Iter.   Inner-Iter.     Column Row Layer    Maximum-Head-Change  Column Row Layer    Maximum-Flux-Residual          L2-NORM 
          0                11           2             7    6     1       0.5454143778E-02       7    6    1         0.3002301219E+00      0.3002445763E+00
          0                12           2             7    6     1      -0.4857059722E-03       7    6    1        -0.2704731456E-01      0.2716062101E-01
          0                13           1             7    6     1       0.3880963603E-04       7    6    1         0.2169432336E-02      0.2189498549E-02
          0                14           1             7    6     1      -0.2667746395E-05       7    6    1        -0.1525212165E-03      0.1689045585E-03

    ------------------------------------------------
       NWT REQUIRED           14 OUTER ITERATIONS 
       AND A TOTAL OF         26 INNER ITERATIONS.
    ------------------------------------------------

 NO OUTPUT CONTROL FOR STRESS PERIOD   21   TIME STEP   23
 
 SOLVING FOR HEAD 
                                                   Max.-Head-Change                         Max.-Flux-Residual
  Residual-Control   Outer-Iter.   Inner-Iter.     Column Row Layer    Maximum-Head-Change  Column Row Layer    Maximum-Flux-Residual          L2-NORM 
          0                 1           2             7    6     1      -0.1912393509E+00       7    6    1        -0.1043534402E+02      0.1058020859E+02
          0                 2           2             7    6     1      -0.4011061762E-01       7    6    1        -0.2187216453E+01      0.2220958598E+01
          0                 3           2             7    6     1       0.1599046584E-01       7    6    1         0.8810337724E+00      0.8918709400E+00
          0                 4           2             7    6     1       0.1066306872E-01       7    6    1         0.5870924439E+00      0.5901049134E+00
          0                 5           2             7    6     1       0.1121732866E-01       7    6    1         0.6175508620E+00      0.6182124557E+00
          0                 6           2             7    6     1       0.1123919000E-01       7    6    1         0.6187350294E+00      0.6189291979E+00
          0                 7           2             7    6     1       0.9112173069E-02       7    6    1         0.5016101958E+00      0.5016626816E+00
          0                 8           2             7    6     1      -0.8110023501E-03       7    6    1        -0.4516577011E-01      0.4542277600E-01
          0                 9           1             7    6     1       0.6477060409E-04       7    6    1         0.3620135343E-02      0.3805836893E-02
          0                10           1             7    6     1      -0.4445749543E-05       7    6    1        -0.2543998612E-03      0.5494848139E-03

    ------------------------------------------------
       NWT REQUIRED           10 OUTER ITERATIONS 
       AND A TOTAL OF         18 INNER ITERATIONS.
    ------------------------------------------------

 NO OUTPUT CONTROL FOR STRESS PERIOD   21   TIME STEP   24
 
 SOLVING FOR HEAD 
                                                   Max.-Head-Change                         Max.-Flux-Residual
  Residual-Control   Outer-Iter.   Inner-Iter.     Column Row Layer    Maximum-Head-Change  Column Row Layer    Maximum-Flux-Residual          L2-NORM 
          0                 1           2             7    6     1      -0.1823079075E+00       7    6    1        -0.9942679661E+01      0.1009357121E+02
          0                 2           2             7    6     1      -0.4883162161E-01       7    6    1        -0.2662212353E+01      0.2690733119E+01
          0                 3           2             7    6     1       0.9247269131E-02       7    6    1         0.5099534414E+00      0.5287555069E+00
          0                 4           2             7    6     1       0.3605548099E-02       7    6    1         0.1985815137E+00      0.2070730322E+00
          0                 5           2             7    6     1       0.4129229736E-02       7    6    1         0.2273420403E+00      0.2288652894E+00
          0                 6           2             7    6     1       0.4095632494E-02       7    6    1         0.2254729598E+00      0.2258148165E+00
          0                 7           2             7    6     1       0.4111601810E-02       7    6    1         0.2263475395E+00      0.2264501007E+00
          0                 8           2             7    6     1       0.4122770449E-02       7    6    1         0.2269598587E+00      0.2270147904E+00
          0                 9           2             7    6     1       0.4134100955E-02       7    6    1         0.2275814719E+00      0.2276270389E+00
          0                10           2             7    6     1       0.4145120730E-02       7    6    1         0.2281860234E+00      0.2282298386E+00
                                                   Max.-Head-Change                         Max.-Flux-Residual
  Residual-Control   Outer-Iter.   Inner-Iter.     Column Row Layer    Maximum-Head-Change  Column Row Layer    Maximum-Flux-Residual          L2-NORM 
          0                11           2             7    6     1       0.4155908432E-02       7    6    1         0.2287777941E+00      0.2288213935E+00
          0                12           2             7    6     1       0.4166405224E-02       7    6    1         0.2293535379E+00      0.2293972393E+00
          0                13           2             7    6     1       0.4176616407E-02       7    6    1         0.2299135476E+00      0.2299574002E+00
          0                14           2             7    6     1       0.4186541489E-02       7    6    1         0.2304577973E+00      0.2305018109E+00
          0                15           2             7    6     1       0.4196145864E-02       7    6    1         0.2309843824E+00      0.2310285712E+00
          0                16           2             7    6     1       0.4205432640E-02       7    6    1         0.2314934751E+00      0.2315191750E+00
          0                17           2             7    6     1       0.2914921523E-02       7    6    1         0.1604404131E+00      0.1604513228E+00
          0                18           2             7    6     1      -0.2596911619E-03       7    6    1        -0.1446210560E-01      0.1452857282E-01
          0                19           1             7    6     1       0.2077016719E-04       7    6    1         0.1160666713E-02      0.1173453734E-02
          0                20           1             7    6     1      -0.1427176512E-05       7    6    1        -0.8166246607E-04      0.9161703226E-04

    ------------------------------------------------
       NWT REQUIRED           20 OUTER ITERATIONS 
       AND A TOTAL OF         38 INNER ITERATIONS.
    ------------------------------------------------

 NO OUTPUT CONTROL FOR STRESS PERIOD   21   TIME STEP   25
 
 SOLVING FOR HEAD 
                                                   Max.-Head-Change                         Max.-Flux-Residual
  Residual-Control   Outer-Iter.   Inner-Iter.     Column Row Layer    Maximum-Head-Change  Column Row Layer    Maximum-Flux-Residual          L2-NORM 
          0                 1           2             7    6     1      -0.1739152756E+00       7    6    1        -0.9479976068E+01      0.9641037756E+01
          0                 2           2             7    6     1       0.2367337294E+00       7    6    1         0.1303829082E+02      0.1304434690E+02
          0                 3           2             7    6     1      -0.2108967138E-01       7    6    1        -0.1173465630E+01      0.1183051326E+01
          0                 4           2             7    6     1       0.1678268814E-02       7    6    1         0.9400313702E-01      0.1108632720E+00
          0                 5           2             8    2     1       0.2146591200E-03       7    6    1        -0.6605093593E-02      0.2690862806E-01
          0                 6           1             8    2     1       0.9648961246E-04       8    2    1         0.2505633726E-02      0.1164798787E-01
          0                 7           1             8    2     1       0.4337219534E-04       8    2    1         0.1126286130E-02      0.5206888461E-02
          0                 8           1             8    2     1       0.1949583606E-04       8    2    1         0.5062668719E-03      0.2330083915E-02
          0                 9           1             8    2     1       0.8763386359E-05       8    2    1         0.2275673277E-03      0.1042972362E-02

    ------------------------------------------------
       NWT REQUIRED            9 OUTER ITERATIONS 
       AND A TOTAL OF         14 INNER ITERATIONS.
    ------------------------------------------------

 NO OUTPUT CONTROL FOR STRESS PERIOD   21   TIME STEP   26
 
 SOLVING FOR HEAD 
                                                   Max.-Head-Change                         Max.-Flux-Residual
  Residual-Control   Outer-Iter.   Inner-Iter.     Column Row Layer    Maximum-Head-Change  Column Row Layer    Maximum-Flux-Residual          L2-NORM 
          0                 1           2             7    6     1      -0.2479909590E+00       7    6    1        -0.1352415483E+02      0.1363312641E+02
          0                 2           2             7    6     1       0.3150775575E+00       7    6    1         0.1735238741E+02      0.1735697665E+02
          0                 3           2             7    6     1      -0.2806576799E-01       7    6    1        -0.1561749926E+01      0.1570241566E+01
          0                 4           2             7    6     1       0.2233965901E-02       7    6    1         0.1251087264E+00      0.1383123700E+00
          0                 5           2             8    2     1       0.2145659388E-03       7    6    1        -0.8790319754E-02      0.2755020386E-01
          0                 6           1             8    2     1       0.9644768859E-04       8    2    1         0.2504545877E-02      0.1164606027E-01
          0                 7           1             8    2     1       0.4335333322E-04       8    2    1         0.1125796692E-02      0.5202330109E-02
          0                 8           1             8    2     1       0.1948734992E-04       8    2    1         0.5060466669E-03      0.2327881551E-02
          0                 9           1             8    2     1       0.8759568164E-05       8    2    1         0.2274682506E-03      0.1041961716E-02

    ------------------------------------------------
       NWT REQUIRED            9 OUTER ITERATIONS 
       AND A TOTAL OF         14 INNER ITERATIONS.
    ------------------------------------------------

 NO OUTPUT CONTROL FOR STRESS PERIOD   21   TIME STEP   27
 
 SOLVING FOR HEAD 
                                                   Max.-Head-Change                         Max.-Flux-Residual
  Residual-Control   Outer-Iter.   Inner-Iter.     Column Row Layer    Maximum-Head-Change  Column Row Layer    Maximum-Flux-Residual          L2-NORM 
          0                 1           2             7    6     1      -0.2502445240E+00       7    6    1        -0.1364928185E+02      0.1375406481E+02
          0                 2           2             7    6     1       0.3238393885E-01       7    6    1         0.1785992266E+01      0.1828644573E+01
          0                 3           2             7    6     1       0.4724518489E-02       7    6    1         0.2603337859E+00      0.2935926554E+00
          0                 4           2             7    6     1       0.7222158711E-02       7    6    1         0.3976569597E+00      0.4019641791E+00
          0                 5           2             7    6     1       0.6998675731E-02       7    6    1         0.3852939713E+00      0.3862372154E+00
          0                 6           2             7    6     1       0.7019011531E-02       7    6    1         0.3864030340E+00      0.3866501340E+00
          0                 7           2             7    6     1       0.7017215335E-02       7    6    1         0.3862993206E+00      0.3864079881E+00
          0                 8           2             7    6     1       0.7017381442E-02       7    6    1         0.3863047959E+00      0.3863858418E+00
          0                 9           2             7    6     1       0.7017366157E-02       7    6    1         0.3863004398E+00      0.3863761259E+00
          0                10           2             7    6     1       0.7017366648E-02       7    6    1         0.3862969691E+00      0.3863137039E+00
                                                   Max.-Head-Change                         Max.-Flux-Residual
  Residual-Control   Outer-Iter.   Inner-Iter.     Column Row Layer    Maximum-Head-Change  Column Row Layer    Maximum-Flux-Residual          L2-NORM 
          0                11           2             7    6     1       0.1546506525E-02       7    6    1         0.8507443225E-01      0.8513090659E-01
          0                12           2             7    6     1      -0.1374535223E-03       7    6    1        -0.7664360035E-02      0.7747570191E-02
          0                13           1             7    6     1       0.1103253423E-04       7    6    1         0.6148209402E-03      0.6390946414E-03
          0                14           1             7    6     1      -0.7490222957E-06       7    6    1        -0.4319357731E-04      0.6073896473E-04

    ------------------------------------------------
       NWT REQUIRED           14 OUTER ITERATIONS 
       AND A TOTAL OF         26 INNER ITERATIONS.
    ------------------------------------------------

 NO OUTPUT CONTROL FOR STRESS PERIOD   21   TIME STEP   28
 
 SOLVING FOR HEAD 
                                                   Max.-Head-Change                         Max.-Flux-Residual
  Residual-Control   Outer-Iter.   Inner-Iter.     Column Row Layer    Maximum-Head-Change  Column Row Layer    Maximum-Flux-Residual          L2-NORM 
          0                 1           2             7    6     1      -0.1703765533E+00       7    6    1        -0.9286755248E+01      0.9443884908E+01
          0                 2           2             7    6     1      -0.3511055846E-01       7    6    1        -0.1912770620E+01      0.1952473912E+01
          0                 3           2             7    6     1       0.2286000387E-01       7    6    1         0.1259536498E+01      0.1267288914E+01
          0                 4           2             7    6     1       0.1734314802E-01       7    6    1         0.9549021449E+00      0.9567391568E+00
          0                 5           2             7    6     1       0.1124400389E-01       7    6    1         0.6189584485E+00      0.6195377496E+00
          0                 6           2             7    6     1      -0.1000444767E-02       7    6    1        -0.5571870498E-01      0.5715497788E-01
          0                 7           1             7    6     1       0.7989109036E-04       7    6    1         0.4465109072E-02      0.6875146365E-02
          0                 8           1             8    2     1       0.1947053745E-04       8    2    1         0.5056104306E-03      0.2348056369E-02
          0                 9           1             8    2     1       0.8752003305E-05       8    2    1         0.2272719703E-03      0.1039921580E-02

    ------------------------------------------------
       NWT REQUIRED            9 OUTER ITERATIONS 
       AND A TOTAL OF         15 INNER ITERATIONS.
    ------------------------------------------------

 NO OUTPUT CONTROL FOR STRESS PERIOD   21   TIME STEP   29
 
 SOLVING FOR HEAD 
                                                   Max.-Head-Change                         Max.-Flux-Residual
  Residual-Control   Outer-Iter.   Inner-Iter.     Column Row Layer    Maximum-Head-Change  Column Row Layer    Maximum-Flux-Residual          L2-NORM 
          0                 1           2             7    6     1      -0.1626545904E+00       7    6    1        -0.8861209678E+01      0.9032084401E+01
          0                 2           2             7    6     1      -0.3849078589E-01       7    6    1        -0.2096534554E+01      0.2134251240E+01
          0                 3           2             7    6     1       0.2062758781E-01       7    6    1         0.1136703093E+01      0.1145344851E+01
          0                 4           2             7    6     1       0.1497880413E-01       7    6    1         0.8247449902E+00      0.8269238243E+00
          0                 5           2             7    6     1       0.1548987153E-01       7    6    1         0.8528161471E+00      0.8532254451E+00
          0                 6           2             7    6     1       0.2267507228E-02       7    6    1         0.1247159672E+00      0.1253891139E+00
          0                 7           2             7    6     1      -0.2012592289E-03       7    6    1        -0.1122818485E-01      0.1251212819E-01
          0                 8           1             8    2     1       0.1946206582E-04       7    6    1         0.9000916730E-03      0.2505934730E-02
          0                 9           1             8    2     1       0.8748191363E-05       8    2    1         0.2271730677E-03      0.1042130948E-02

    ------------------------------------------------
       NWT REQUIRED            9 OUTER ITERATIONS 
       AND A TOTAL OF         16 INNER ITERATIONS.
    ------------------------------------------------

 NO OUTPUT CONTROL FOR STRESS PERIOD   21   TIME STEP   30



 STREAM LISTING     PERIOD     21   STEP       30

 LAYER ROW COL. STREAM  RCH.  FLOW INTO     FLOW TO   FLOW OUT OF   OVRLND.     DIRECT     STREAM       STREAM     STREAM     STREAM   STREAMBED  STREAMBED
                SEG.NO.  NO.  STRM. RCH.    AQUIFER    STRM. RCH.    RUNOFF     PRECIP       ET          HEAD       DEPTH      WIDTH   CONDCTNC.   GRADIENT

   1    1    1     1     1    7.0000E+00  1.1914E-09   7.0000E+00  0.000E+00  0.000E+00  0.000E+00  1.09385E+03  7.984E-01  6.970E+00  3.137E-10  1.266E+00
   1    2    2     1     2    7.0000E+00  1.8485E-09   7.0000E+00  0.000E+00  0.000E+00  0.000E+00  1.08886E+03  7.975E-01  6.954E+00  4.868E-10  1.266E+00
   1    3    3     1     3    7.0000E+00  1.5861E-09   7.0000E+00  0.000E+00  0.000E+00  0.000E+00  1.08322E+03  7.978E-01  6.960E+00  4.176E-10  1.266E+00
   1    3    4     1     4    7.0000E+00  1.4678E-09   7.0000E+00  0.000E+00  0.000E+00  0.000E+00  1.07821E+03  7.980E-01  6.963E+00  3.865E-10  1.266E+00
   1    4    5     2     1    5.0000E+00  2.6928E-01   4.7307E+00  0.000E+00  0.000E+00  0.000E+00  1.07239E+03  4.523E-01  1.200E+01  7.800E-02  1.151E+00
   1    5    6     2     2    4.7307E+00  2.0633E-01   4.5244E+00  0.000E+00  0.000E+00  0.000E+00  1.06695E+03  4.389E-01  1.200E+01  6.000E-02  1.146E+00
   1    6    6     2     3    4.5244E+00  2.0562E-01   4.3188E+00  0.000E+00  0.000E+00  0.000E+00  1.06222E+03  4.271E-01  1.200E+01  6.000E-02  1.142E+00
   1    7    6     2     4    4.3188E+00  2.0490E-01   4.1139E+00  0.000E+00  0.000E+00  0.000E+00  1.05749E+03  4.151E-01  1.200E+01  6.000E-02  1.138E+00
   1    8    6     2     5    4.1139E+00  2.0417E-01   3.9097E+00  0.000E+00  0.000E+00  0.000E+00  1.05276E+03  4.029E-01  1.200E+01  6.000E-02  1.134E+00
   1    3    5     3     1    2.0000E+00  2.8252E-01   1.7175E+00  0.000E+00  0.000E+00  0.000E+00  1.07555E+03  1.909E+00  9.636E+00  7.227E-02  1.955E+00
   1    3    6     3     2    1.7175E+00  2.4905E-01   1.4684E+00  0.000E+00  0.000E+00  0.000E+00  1.07264E+03  1.727E+00  8.909E+00  6.682E-02  1.864E+00
   1    3    7     3     3    1.4684E+00  1.9718E-01   1.2712E+00  0.000E+00  0.000E+00  0.000E+00  1.06987E+03  1.555E+00  8.218E+00  5.547E-02  1.777E+00
   1    4    8     3     4    1.2712E+00  2.2567E-01   1.0456E+00  0.000E+00  0.000E+00  0.000E+00  1.06682E+03  1.364E+00  7.455E+00  6.709E-02  1.682E+00
   1    5    8     3     5    1.0456E+00  1.5790E-01   8.8768E-01  0.000E+00  0.000E+00  0.000E+00  1.06362E+03  1.164E+00  6.655E+00  4.991E-02  1.582E+00
   1    6    8     3     6    8.8768E-01  5.5980E-02   8.3170E-01  0.000E+00  0.000E+00  0.000E+00  1.06158E+03  1.036E+00  6.145E+00  1.844E-02  1.518E+00
   1    5   10     4     1    1.0000E+01  9.0919E-02   9.9091E+00  0.000E+00  0.000E+00  0.000E+00  1.07836E+03  6.368E-01  1.000E+01  2.500E-02  1.212E+00
   1    5    9     4     2    9.9091E+00  1.8158E-01   9.7275E+00  0.000E+00  0.000E+00  0.000E+00  1.07154E+03  6.315E-01  1.000E+01  5.000E-02  1.211E+00
   1    6    8     4     3    9.7275E+00  1.2689E-01   9.6006E+00  0.000E+00  0.000E+00  0.000E+00  1.06381E+03  6.256E-01  1.000E+01  3.500E-02  1.209E+00
   1    6    8     5     1    1.0432E+01  2.2686E-09   1.0432E+01  0.000E+00  0.000E+00  0.000E+00  1.05868E+03  6.790E-01  1.542E+01  6.166E-10  1.226E+00
   1    7    7     5     2    1.0432E+01  2.8306E-09   1.0432E+01  0.000E+00  0.000E+00  0.000E+00  1.05418E+03  6.784E-01  1.539E+01  7.695E-10  1.226E+00
   1    8    7     5     3    1.0432E+01  1.9868E-09   1.0432E+01  0.000E+00  0.000E+00  0.000E+00  1.04993E+03  6.794E-01  1.543E+01  5.400E-10  1.226E+00
   1    8    6     5     4    1.0432E+01  1.4217E-09   1.0432E+01  0.000E+00  0.000E+00  0.000E+00  1.04693E+03  6.800E-01  1.545E+01  3.863E-10  1.227E+00
   1    9    6     6     1    1.0432E+01  2.2309E-01   1.0209E+01  0.000E+00  0.000E+00  0.000E+00  1.04345E+03  7.181E-01  1.200E+01  6.000E-02  1.239E+00
   1   10    7     6     2    1.0209E+01  2.2253E-01   9.9867E+00  0.000E+00  0.000E+00  0.000E+00  1.03889E+03  7.088E-01  1.200E+01  6.000E-02  1.236E+00
   1   11    7     6     3    9.9867E+00  2.2196E-01   9.7647E+00  0.000E+00  0.000E+00  0.000E+00  1.03434E+03  6.994E-01  1.200E+01  6.000E-02  1.233E+00
   1   12    7     6     4    9.7647E+00  2.2139E-01   9.5433E+00  0.000E+00  0.000E+00  0.000E+00  1.02978E+03  6.899E-01  1.200E+01  6.000E-02  1.230E+00
   1   13    7     6     5    9.5433E+00  8.8398E-02   9.4549E+00  0.000E+00  0.000E+00  0.000E+00  1.02659E+03  6.833E-01  1.200E+01  2.400E-02  1.228E+00
   1   14    9     7     1    1.5000E+02  2.9539E-08   1.5000E+02  0.000E+00  0.000E+00  0.000E+00  1.03986E+03  2.283E+00  5.528E+01  5.591E-09  1.761E+00
   1   13    8     7     2    1.5000E+02  3.2486E-14   1.5000E+02  0.000E+00  0.000E+00  0.000E+00  1.03478E+03  2.283E+00  5.527E+01  6.150E-15  1.761E+00
   1   13    7     7     3    1.5000E+02  2.9539E-08   1.5000E+02  0.000E+00  0.000E+00  0.000E+00  1.02970E+03  2.283E+00  5.528E+01  5.591E-09  1.761E+00
   1   13    6     8     1    1.5945E+02  2.4941E-14   1.5945E+02  0.000E+00  0.000E+00  0.000E+00  1.02475E+03  2.874E+00  4.167E+01  4.246E-15  1.958E+00
   1   13    5     8     2    1.5945E+02  2.4941E-10   1.5945E+02  0.000E+00  0.000E+00  0.000E+00  1.01850E+03  2.874E+00  4.167E+01  4.246E-11  1.958E+00
   1   13    4     8     3    1.5945E+02  1.6078E-13   1.5945E+02  0.000E+00  0.000E+00  0.000E+00  1.01225E+03  2.877E+00  4.171E+01  4.251E-14  1.261E+00
   1   13    3     8     4    1.5945E+02  5.0912E-08   1.5945E+02  0.000E+00  0.000E+00  0.000E+00  1.00601E+03  2.880E+00  4.177E+01  4.256E-08  3.987E-01
   1   13    2     8     5    1.5945E+02  4.8527E-07   1.5945E+02  0.000E+00  0.000E+00  0.000E+00  9.99757E+02  2.882E+00  4.179E+01  4.258E-06  3.799E-02
   1   13    1     8     6    1.5945E+02 -1.8259E-01   1.5964E+02  0.000E+00  0.000E+00  0.000E+00  9.94758E+02  2.883E+00  4.180E+01  2.556E+00 -2.381E-02
   1    6    8     9     1    3.9097E+00  0.0000E+00   3.9097E+00  0.000E+00  0.000E+00  0.000E+00  1.07881E+03  3.068E-01  4.000E+00  0.000E+00  1.102E+00





UNSATURATED ZONE PACKAGE VOLUMETRIC BUDGET FOR  TIME STEP    30 STRESS PERIOD   21
  ------------------------------------------------------------------------------



     CUMULATIVE VOLUMES      L**3       RATES FOR THIS TIME STEP      L**3/T
     ------------------                 ------------------------

           IN:                                      IN:
           ---                                      ---
        INFILTRATION =   123237795.5937          INFILTRATION =          28.9378

          OUT:                                     OUT:
          ----                                     ----
              UZF ET =   614470512.6700                UZF ET =           4.3315
        UZF RECHARGE =  1381052630.6673          UZF RECHARGE =          22.1681

            IN - OUT = -1872285347.7436              IN - OUT =           2.4382

          STORAGE:                                 STORAGE:
          --------                                 --------
      STORAGE CHANGE = -1872264632.2526        STORAGE CHANGE =           2.4382

 PERCENT DISCREPANCY IS DIFFERENCE BETWEEN IN-OUT MINUS CHANGE IN STORAGE
 DIVIDED BY THE AVERAGE OF IN AND OUT TIMES 100

 PERCENT DISCREPANCY =          -0.00     PERCENT DISCREPANCY =           0.00






1
  VOLUMETRIC BUDGET FOR ENTIRE MODEL AT END OF TIME STEP   30, STRESS PERIOD  21
  ------------------------------------------------------------------------------

     CUMULATIVE VOLUMES      L**3       RATES FOR THIS TIME STEP      L**3/T
     ------------------                 ------------------------

           IN:                                      IN:
           ---                                      ---
             STORAGE =    44451680.0000               STORAGE =          12.2988
       CONSTANT HEAD =           0.0000         CONSTANT HEAD =           0.0000
               WELLS =           0.0000                 WELLS =           0.0000
     HEAD DEP BOUNDS =    56621704.0000       HEAD DEP BOUNDS =           0.9805
      STREAM LEAKAGE =   219066896.0000        STREAM LEAKAGE =           3.6354
        UZF RECHARGE =  1381052800.0000          UZF RECHARGE =          22.1681
               GW ET =           0.0000                 GW ET =           0.0000
     SURFACE LEAKAGE =           0.0000       SURFACE LEAKAGE =           0.0000

            TOTAL IN =  1701193088.0000              TOTAL IN =          39.0829

          OUT:                                     OUT:
          ----                                     ----
             STORAGE =  1460313472.0000               STORAGE =          20.1822
       CONSTANT HEAD =           0.0000         CONSTANT HEAD =           0.0000
               WELLS =    14303122.0000                 WELLS =          12.0903
     HEAD DEP BOUNDS =    15670671.0000       HEAD DEP BOUNDS =           0.2595
      STREAM LEAKAGE =   135900848.0000        STREAM LEAKAGE =           0.1826
        UZF RECHARGE =           0.0000          UZF RECHARGE =           0.0000
               GW ET =    74834192.0000                 GW ET =           6.3650
     SURFACE LEAKAGE =           0.0000       SURFACE LEAKAGE =           0.0000

           TOTAL OUT =  1701022208.0000             TOTAL OUT =          39.0796

            IN - OUT =      170880.0000              IN - OUT =       3.2616E-03

 PERCENT DISCREPANCY =           0.01     PERCENT DISCREPANCY =           0.01






         TIME SUMMARY AT END OF TIME STEP   30 IN STRESS PERIOD   21
                    SECONDS     MINUTES      HOURS       DAYS        YEARS
                    -----------------------------------------------------------
   TIME STEP LENGTH  87600.      1460.0      24.333      1.0139     2.77588E-03
 STRESS PERIOD TIME 2.62800E+06  43800.      730.00      30.417     8.32763E-02
         TOTAL TIME 5.51880E+07 9.19800E+05  15330.      638.75      1.7488    
1
1
                            STRESS PERIOD NO.   22, LENGTH =   2628000.    
                            -----------------------------------------------

                              NUMBER OF TIME STEPS =    30

                               MULTIPLIER FOR DELT =     1.000

                            INITIAL TIME STEP SIZE =   87600.00    

 WELL NO.  LAYER   ROW   COL   STRESS RATE         
 --------------------------------------------------
      1      1      6      4       0.000    
      2      1      6      7       0.000    
      3      1      7      4       0.000    
      4      1      7      5       0.000    
      5      1      8      4       0.000    
      6      1      8      5       0.000    
      7      1      9      4       0.000    
      8      1      9      5       0.000    
      9      1     10      4       0.000    
     10      1     10      5       0.000    

     10 WELLS

 REUSING NON-PARAMETER GHB CELLS FROM LAST STRESS PERIOD

      2 GHB CELLS

 REUSING STREAM SEGMENT DATA FROM LAST STRESS PERIOD



            AREAL INFILTRATION RATE
 READING ON UNIT   19 WITH FORMAT: (10F4.0)            

            1           2           3           4           5           6           7           8           9          10
 ........................................................................................................................
   1   1.0000E-10  2.0000E-10   0.000       0.000       0.000       0.000       0.000       0.000       0.000       0.000    
   2   2.0000E-10  1.0000E-10  2.0000E-10   0.000       0.000      8.0000E-10  8.0000E-10  5.0000E-10   0.000       0.000    
   3    0.000      5.0000E-10  1.0000E-10  1.0000E-10  8.0000E-10  8.0000E-10  5.0000E-10  5.0000E-10   0.000       0.000    
   4   8.0000E-10  5.0000E-10  1.0000E-10  1.0000E-10  1.0000E-10  1.0000E-10  1.0000E-10  1.0000E-10  2.0000E-10   0.000    
   5   8.0000E-10  5.0000E-10  1.0000E-10  1.0000E-10  1.0000E-10  1.0000E-10  1.0000E-10  1.0000E-10  1.0000E-10  1.0000E-10
   6   8.0000E-10  5.0000E-10  5.0000E-10  2.0000E-10  2.0000E-10  1.0000E-10  1.0000E-10  1.0000E-10  1.0000E-10  5.0000E-10
   7   8.0000E-10  5.0000E-10  5.0000E-10  2.0000E-10  2.0000E-10  1.0000E-10  1.0000E-10  2.0000E-10  2.0000E-10   0.000    
   8    0.000      5.0000E-10  5.0000E-10  2.0000E-10  2.0000E-10  1.0000E-10  1.0000E-10  2.0000E-10  5.0000E-10   0.000    
   9    0.000      5.0000E-10  5.0000E-10  2.0000E-10  2.0000E-10  1.0000E-10  1.0000E-10  2.0000E-10  5.0000E-10   0.000    
  10    0.000      5.0000E-10  5.0000E-10  2.0000E-10  2.0000E-10  1.0000E-10  1.0000E-10  2.0000E-10  5.0000E-10  8.0000E-10
  11    0.000      1.0000E-10  1.0000E-10  1.0000E-10  1.0000E-10  1.0000E-10  1.0000E-10  2.0000E-10  5.0000E-10   0.000    
  12   1.0000E-10  1.0000E-10  1.0000E-10  1.0000E-10  1.0000E-10  1.0000E-10  1.0000E-10  1.0000E-10  2.0000E-10   0.000    
  13   1.0000E-10  1.0000E-10  2.0000E-10  2.0000E-10  2.0000E-10  2.0000E-10  2.0000E-10  1.0000E-10  1.0000E-10   0.000    
  14    0.000      2.0000E-10  5.0000E-10  5.0000E-10  5.0000E-10  5.0000E-10  5.0000E-10  2.0000E-10  1.0000E-10   0.000    
  15    0.000       0.000      8.0000E-10  8.0000E-10  8.0000E-10  8.0000E-10   0.000       0.000       0.000       0.000    

                  ET RATE =  2.500000E-08

 USING ET EXTINCTION DEPTH FROM PREVIOUS STRESS PERIOD. CURRENT PERIOD IS:      22

 USING EXTINCTION WATER CONTENT FROM PREVIOUS STRESS PERIOD. CURRENT PERIOD IS:      22
 
 SOLVING FOR HEAD 
                                                   Max.-Head-Change                         Max.-Flux-Residual
  Residual-Control   Outer-Iter.   Inner-Iter.     Column Row Layer    Maximum-Head-Change  Column Row Layer    Maximum-Flux-Residual          L2-NORM 
          0                 1           2             7    6     1      -0.1553931055E+00       7    6    1        -0.8461052823E+01      0.8811731968E+01
          0                 2           2             7    6     1      -0.5349778881E-01       7    6    1        -0.2914723230E+01      0.2948085741E+01
          0                 3           2             7    6     1       0.7990142037E-02       7    6    1         0.4403496443E+00      0.4614975461E+00
          0                 4           2             7    6     1       0.1983578747E-02       7    6    1         0.1092443984E+00      0.1238136912E+00
          0                 5           2             7    6     1       0.2525126664E-02       7    6    1         0.1390447174E+00      0.1414435110E+00
          0                 6           2             7    6     1       0.2476608966E-02       7    6    1         0.1363622413E+00      0.1368725967E+00
          0                 7           2             7    6     1       0.2481021939E-02       7    6    1         0.1366023540E+00      0.1367044951E+00
          0                 8           2             7    6     1       0.9120041299E-03       7    6    1         0.5020985610E-01      0.5026616075E-01
          0                 9           1             7    6     1      -0.8131959558E-04       7    6    1        -0.4521398780E-02      0.4647170531E-02
          0                10           1             7    6     1       0.6472449748E-05       7    6    1         0.3624116837E-03      0.5907915909E-03

    ------------------------------------------------
       NWT REQUIRED           10 OUTER ITERATIONS 
       AND A TOTAL OF         18 INNER ITERATIONS.
    ------------------------------------------------

 NO OUTPUT CONTROL FOR STRESS PERIOD   22   TIME STEP    1
 
 SOLVING FOR HEAD 
                                                   Max.-Head-Change                         Max.-Flux-Residual
  Residual-Control   Outer-Iter.   Inner-Iter.     Column Row Layer    Maximum-Head-Change  Column Row Layer    Maximum-Flux-Residual          L2-NORM 
          0                 1           2             7    6     1      -0.2001751476E+00       7    6    1        -0.1089868929E+02      0.1118071011E+02
          0                 2           2             7    6     1       0.2869427869E-02       7    6    1         0.1618727655E+00      0.4630206561E+00
          0                 3           2             8    2     1       0.1059644307E-02       8    2    1         0.2751674691E-01      0.1375318386E+00
          0                 4           2             7    6     1       0.4822444111E-03       7    6    1         0.2662380622E-01      0.6391901006E-01
          0                 5           2             7    6     1       0.4615275539E-03       7    6    1         0.2541883791E-01      0.3621190872E-01
          0                 6           2             7    6     1       0.4635799841E-03       7    6    1         0.2552604650E-01      0.2801015513E-01
          0                 7           2             7    6     1       0.4634392475E-03       7    6    1         0.2551625041E-01      0.2603600298E-01
          0                 8           2             7    6     1       0.4634783776E-03       7    6    1         0.2551782943E-01      0.2562621621E-01
          0                 9           2             7    6     1       0.4634593498E-03       7    6    1         0.2551647910E-01      0.2554168086E-01
          0                10           2             7    6     1       0.4634786744E-03       7    6    1         0.2551729945E-01      0.2552579322E-01
                                                   Max.-Head-Change                         Max.-Flux-Residual
  Residual-Control   Outer-Iter.   Inner-Iter.     Column Row Layer    Maximum-Head-Change  Column Row Layer    Maximum-Flux-Residual          L2-NORM 
          0                11           2             7    6     1       0.4634596219E-03       7    6    1         0.2551601680E-01      0.2552116794E-01
          0                12           2             7    6     1       0.4634613122E-03       7    6    1         0.2551587723E-01      0.2552035637E-01
          0                13           2             7    6     1       0.4634784624E-03       7    6    1         0.2551658835E-01      0.2552092716E-01
          0                14           2             7    6     1       0.4634595844E-03       7    6    1         0.2551531544E-01      0.2551963295E-01
          0                15           2             7    6     1       0.4634785995E-03       7    6    1         0.2551612867E-01      0.2552044115E-01
          0                16           2             7    6     1       0.4634595592E-03       7    6    1         0.2551484655E-01      0.2551917041E-01
          0                17           2             7    6     1       0.4634612716E-03       7    6    1         0.2551470698E-01      0.2551901183E-01
          0                18           2             7    6     1       0.4634784354E-03       7    6    1         0.2551541807E-01      0.2551734103E-01
          0                19           2             7    6     1       0.2904429775E-03       7    6    1         0.1598884606E-01      0.1598921103E-01
          0                20           1             7    6     1      -0.2593625982E-04       7    6    1        -0.1441872534E-02      0.1443795621E-02
          0                21           1             7    6     1       0.2066408876E-05       7    6    1         0.1157535821E-03      0.1164846015E-03

    ------------------------------------------------
       NWT REQUIRED           21 OUTER ITERATIONS 
       AND A TOTAL OF         40 INNER ITERATIONS.
    ------------------------------------------------

 NO OUTPUT CONTROL FOR STRESS PERIOD   22   TIME STEP    2
 
 SOLVING FOR HEAD 
                                                   Max.-Head-Change                         Max.-Flux-Residual
  Residual-Control   Outer-Iter.   Inner-Iter.     Column Row Layer    Maximum-Head-Change  Column Row Layer    Maximum-Flux-Residual          L2-NORM 
          0                 1           2             7    6     1      -0.1994884943E+00       7    6    1        -0.1085471790E+02      0.1115544935E+02
          0                 2           2             7    6     1       0.3013374585E+00       7    6    1         0.1659429150E+02      0.1659951945E+02
          0                 3           2             7    6     1      -0.2687167973E-01       7    6    1        -0.1493519060E+01      0.1499779479E+01
          0                 4           2             7    6     1       0.2133551394E-02       7    6    1         0.1196317461E+00      0.1328762208E+00
          0                 5           2             8    2     1       0.2140092181E-03       7    6    1        -0.8409490795E-02      0.2707870637E-01
          0                 6           1             8    2     1       0.9619718788E-04       8    2    1         0.2498046303E-02      0.1151681510E-01
          0                 7           1             8    2     1       0.4324061655E-04       8    2    1         0.1122872149E-02      0.5148413004E-02
          0                 8           1             8    2     1       0.1943663065E-04       8    2    1         0.5047307221E-03      0.2304401818E-02
          0                 9           1             8    2     1       0.8736745281E-05       8    2    1         0.2268761118E-03      0.1031630939E-02

    ------------------------------------------------
       NWT REQUIRED            9 OUTER ITERATIONS 
       AND A TOTAL OF         14 INNER ITERATIONS.
    ------------------------------------------------

 NO OUTPUT CONTROL FOR STRESS PERIOD   22   TIME STEP    3
 
 SOLVING FOR HEAD 
                                                   Max.-Head-Change                         Max.-Flux-Residual
  Residual-Control   Outer-Iter.   Inner-Iter.     Column Row Layer    Maximum-Head-Change  Column Row Layer    Maximum-Flux-Residual          L2-NORM 
          0                 1           2             7    6     1      -0.2130575597E+00       7    6    1        -0.1159867902E+02      0.1185839168E+02
          0                 2           2             7    6     1       0.3116188961E+00       7    6    1         0.1715983529E+02      0.1716474432E+02
          0                 3           2             7    6     1      -0.2778765304E-01       7    6    1        -0.1544420850E+01      0.1550525309E+01
          0                 4           2             7    6     1       0.2206481134E-02       7    6    1         0.1237093608E+00      0.1365224384E+00
          0                 5           2             8    2     1       0.2139163995E-03       7    6    1        -0.8695962415E-02      0.2713061334E-01
          0                 6           1             8    2     1       0.9615541808E-04       8    2    1         0.2496962650E-02      0.1149800881E-01
          0                 7           1             8    2     1       0.4322181920E-04       8    2    1         0.1122384489E-02      0.5139683733E-02
          0                 8           1             8    2     1       0.1942817127E-04       8    2    1         0.5045112651E-03      0.2300560498E-02
          0                 9           1             8    2     1       0.8732938216E-05       8    2    1         0.2267773485E-03      0.1029944562E-02

    ------------------------------------------------
       NWT REQUIRED            9 OUTER ITERATIONS 
       AND A TOTAL OF         14 INNER ITERATIONS.
    ------------------------------------------------

 NO OUTPUT CONTROL FOR STRESS PERIOD   22   TIME STEP    4
 
 SOLVING FOR HEAD 
                                                   Max.-Head-Change                         Max.-Flux-Residual
  Residual-Control   Outer-Iter.   Inner-Iter.     Column Row Layer    Maximum-Head-Change  Column Row Layer    Maximum-Flux-Residual          L2-NORM 
          0                 1           2             7    6     1      -0.2173167641E+00       7    6    1        -0.1183514789E+02      0.1206872428E+02
          0                 2           2             7    6     1       0.3120425924E+00       7    6    1         0.1718348352E+02      0.1718830789E+02
          0                 3           2             7    6     1      -0.2782472869E-01       7    6    1        -0.1546549028E+01      0.1552677989E+01
          0                 4           2             7    6     1       0.2209585271E-02       7    6    1         0.1238801172E+00      0.1366432855E+00
          0                 5           2             8    2     1       0.2138236009E-03       7    6    1        -0.8707837055E-02      0.2709640367E-01
          0                 6           1             8    2     1       0.9611365442E-04       8    2    1         0.2495879207E-02      0.1147890418E-01
          0                 7           1             8    2     1       0.4320302336E-04       8    2    1         0.1121896891E-02      0.5131156778E-02
          0                 8           1             8    2     1       0.1941971201E-04       8    2    1         0.5042918183E-03      0.2296809652E-02
          0                 9           1             8    2     1       0.8729130901E-05       8    2    1         0.2266785823E-03      0.1028297445E-02

    ------------------------------------------------
       NWT REQUIRED            9 OUTER ITERATIONS 
       AND A TOTAL OF         14 INNER ITERATIONS.
    ------------------------------------------------

 NO OUTPUT CONTROL FOR STRESS PERIOD   22   TIME STEP    5
 
 SOLVING FOR HEAD 
                                                   Max.-Head-Change                         Max.-Flux-Residual
  Residual-Control   Outer-Iter.   Inner-Iter.     Column Row Layer    Maximum-Head-Change  Column Row Layer    Maximum-Flux-Residual          L2-NORM 
          0                 1           2             7    6     1      -0.2212893087E+00       7    6    1        -0.1205641635E+02      0.1226671277E+02
          0                 2           2             7    6     1       0.3124259561E+00       7    6    1         0.1720561214E+02      0.1721048933E+02
          0                 3           2             7    6     1      -0.2785165170E-01       7    6    1        -0.1548539828E+01      0.1555160140E+01
          0                 4           2             7    6     1       0.2212987993E-02       7    6    1         0.1240422744E+00      0.1367719082E+00
          0                 5           2             8    2     1       0.2137308225E-03       7    6    1        -0.8718304546E-02      0.2707121130E-01
          0                 6           1             8    2     1       0.9607189850E-04       8    2    1         0.2494795997E-02      0.1146028406E-01
          0                 7           1             8    2     1       0.4318422989E-04       8    2    1         0.1121409374E-02      0.5122638990E-02
          0                 8           1             8    2     1       0.1941125338E-04       8    2    1         0.5040723999E-03      0.2293033237E-02
          0                 9           1             8    2     1       0.8725324085E-05       8    2    1         0.2265798266E-03      0.1026631861E-02

    ------------------------------------------------
       NWT REQUIRED            9 OUTER ITERATIONS 
       AND A TOTAL OF         14 INNER ITERATIONS.
    ------------------------------------------------

 NO OUTPUT CONTROL FOR STRESS PERIOD   22   TIME STEP    6
 
 SOLVING FOR HEAD 
                                                   Max.-Head-Change                         Max.-Flux-Residual
  Residual-Control   Outer-Iter.   Inner-Iter.     Column Row Layer    Maximum-Head-Change  Column Row Layer    Maximum-Flux-Residual          L2-NORM 
          0                 1           2             7    6     1      -0.2249937902E+00       7    6    1        -0.1226299234E+02      0.1245439326E+02
          0                 2           2             7    6     1       0.3127827666E+00       7    6    1         0.1722627165E+02      0.1723160389E+02
          0                 3           2             7    6     1      -0.2787296500E-01       7    6    1        -0.1550398440E+01      0.1557679507E+01
          0                 4           2             7    6     1       0.2215733815E-02       7    6    1         0.1241941667E+00      0.1369339313E+00
          0                 5           2             8    2     1       0.2136362134E-03       7    6    1        -0.8728062914E-02      0.2705381015E-01
          0                 6           1             8    2     1       0.9602931997E-04       8    2    1         0.2493691426E-02      0.1144437265E-01
          0                 7           1             8    2     1       0.4316506688E-04       8    2    1         0.1120912256E-02      0.5115211091E-02
          0                 8           1             8    2     1       0.1940262843E-04       8    2    1         0.5038486635E-03      0.2289721235E-02
          0                 9           1             8    2     1       0.8721441987E-05       8    2    1         0.2264791292E-03      0.1025166919E-02

    ------------------------------------------------
       NWT REQUIRED            9 OUTER ITERATIONS 
       AND A TOTAL OF         14 INNER ITERATIONS.
    ------------------------------------------------

 NO OUTPUT CONTROL FOR STRESS PERIOD   22   TIME STEP    7
 
 SOLVING FOR HEAD 
                                                   Max.-Head-Change                         Max.-Flux-Residual
  Residual-Control   Outer-Iter.   Inner-Iter.     Column Row Layer    Maximum-Head-Change  Column Row Layer    Maximum-Flux-Residual          L2-NORM 
          0                 1           2             7    6     1      -0.2284573209E+00       7    6    1        -0.1245548137E+02      0.1263026085E+02
          0                 2           2             7    6     1       0.3131347919E+00       7    6    1         0.1724552193E+02      0.1725035841E+02
          0                 3           2             7    6     1      -0.2789545522E-01       7    6    1        -0.1552131206E+01      0.1560086904E+01
          0                 4           2             7    6     1       0.2219600409E-02       7    6    1         0.1243369820E+00      0.1370125904E+00
          0                 5           2             8    2     1       0.2135434673E-03       7    6    1        -0.8736775811E-02      0.2702442160E-01
          0                 6           1             8    2     1       0.9598757494E-04       8    2    1         0.2492608578E-02      0.1142680859E-01
          0                 7           1             8    2     1       0.4314627742E-04       8    2    1         0.1120424870E-02      0.5107804763E-02
          0                 8           1             8    2     1       0.1939417105E-04       8    2    1         0.5036292856E-03      0.2286530521E-02
          0                 9           1             8    2     1       0.8717634797E-05       8    2    1         0.2263803814E-03      0.1023770647E-02

    ------------------------------------------------
       NWT REQUIRED            9 OUTER ITERATIONS 
       AND A TOTAL OF         14 INNER ITERATIONS.
    ------------------------------------------------

 NO OUTPUT CONTROL FOR STRESS PERIOD   22   TIME STEP    8
 
 SOLVING FOR HEAD 
                                                   Max.-Head-Change                         Max.-Flux-Residual
  Residual-Control   Outer-Iter.   Inner-Iter.     Column Row Layer    Maximum-Head-Change  Column Row Layer    Maximum-Flux-Residual          L2-NORM 
          0                 1           2             7    6     1      -0.2317135787E+00       7    6    1        -0.1263445425E+02      0.1279619329E+02
          0                 2           2             7    6     1       0.3134626520E+00       7    6    1         0.1726341921E+02      0.1726813633E+02
          0                 3           2             7    6     1      -0.2792403591E-01       7    6    1        -0.1553742123E+01      0.1561718176E+01
          0                 4           2             7    6     1       0.2221951295E-02       7    6    1         0.1244662358E+00      0.1370928190E+00
          0                 5           2             8    2     1       0.2134507231E-03       7    6    1        -0.8745810316E-02      0.2699017952E-01
          0                 6           1             8    2     1       0.9594582941E-04       8    2    1         0.2491525749E-02      0.1140976839E-01
          0                 7           1             8    2     1       0.4312748657E-04       8    2    1         0.1119937469E-02      0.5100358609E-02
          0                 8           1             8    2     1       0.1938571267E-04       8    2    1         0.5034098943E-03      0.2283261832E-02
          0                 9           1             8    2     1       0.8713827606E-05       8    2    1         0.2262816266E-03      0.1022330469E-02

    ------------------------------------------------
       NWT REQUIRED            9 OUTER ITERATIONS 
       AND A TOTAL OF         14 INNER ITERATIONS.
    ------------------------------------------------

 NO OUTPUT CONTROL FOR STRESS PERIOD   22   TIME STEP    9
 
 SOLVING FOR HEAD 
                                                   Max.-Head-Change                         Max.-Flux-Residual
  Residual-Control   Outer-Iter.   Inner-Iter.     Column Row Layer    Maximum-Head-Change  Column Row Layer    Maximum-Flux-Residual          L2-NORM 
          0                 1           2             7    6     1      -0.2347654937E+00       7    6    1        -0.1280342249E+02      0.1295240457E+02
          0                 2           2             7    6     1       0.3137764926E+00       7    6    1         0.1728031707E+02      0.1728483341E+02
          0                 3           2             7    6     1      -0.2795015742E-01       7    6    1        -0.1555263360E+01      0.1563367847E+01
          0                 4           2             7    6     1       0.2224352634E-02       7    6    1         0.1245887758E+00      0.1371888123E+00
          0                 5           2             8    2     1       0.2133561111E-03       7    6    1        -0.8754184362E-02      0.2696388819E-01
          0                 6           1             8    2     1       0.9590324250E-04       8    2    1         0.2490421104E-02      0.1139401757E-01
          0                 7           1             8    2     1       0.4310831694E-04       8    2    1         0.1119440244E-02      0.5093286430E-02
          0                 8           1             8    2     1       0.1937708359E-04       8    2    1         0.5031860781E-03      0.2280138533E-02
          0                 9           1             8    2     1       0.8709943132E-05       8    2    1         0.2261808784E-03      0.1020962696E-02

    ------------------------------------------------
       NWT REQUIRED            9 OUTER ITERATIONS 
       AND A TOTAL OF         14 INNER ITERATIONS.
    ------------------------------------------------

 NO OUTPUT CONTROL FOR STRESS PERIOD   22   TIME STEP   10
 
 SOLVING FOR HEAD 
                                                   Max.-Head-Change                         Max.-Flux-Residual
  Residual-Control   Outer-Iter.   Inner-Iter.     Column Row Layer    Maximum-Head-Change  Column Row Layer    Maximum-Flux-Residual          L2-NORM 
          0                 1           2             7    6     1      -0.2376192206E+00       7    6    1        -0.1296134323E+02      0.1309980135E+02
          0                 2           2             7    6     1       0.3140695624E+00       7    6    1         0.1729611011E+02      0.1730045801E+02
          0                 3           2             7    6     1      -0.2797460281E-01       7    6    1        -0.1556685126E+01      0.1564909280E+01
          0                 4           2             7    6     1       0.2226590554E-02       7    6    1         0.1247032835E+00      0.1372781106E+00
          0                 5           2             8    2     1       0.2132615116E-03       7    6    1        -0.8762015877E-02      0.2693770032E-01
          0                 6           1             8    2     1       0.9586066159E-04       8    2    1         0.2489316610E-02      0.1137842645E-01
          0                 7           1             8    2     1       0.4308915005E-04       8    2    1         0.1118943087E-02      0.5086259277E-02
          0                 8           1             8    2     1       0.1936845588E-04       8    2    1         0.5029622932E-03      0.2277024524E-02
          0                 9           1             8    2     1       0.8706059657E-05       8    2    1         0.2260801438E-03      0.1019583665E-02

    ------------------------------------------------
       NWT REQUIRED            9 OUTER ITERATIONS 
       AND A TOTAL OF         14 INNER ITERATIONS.
    ------------------------------------------------

 NO OUTPUT CONTROL FOR STRESS PERIOD   22   TIME STEP   11
 
 SOLVING FOR HEAD 
                                                   Max.-Head-Change                         Max.-Flux-Residual
  Residual-Control   Outer-Iter.   Inner-Iter.     Column Row Layer    Maximum-Head-Change  Column Row Layer    Maximum-Flux-Residual          L2-NORM 
          0                 1           2             7    6     1      -0.2402895350E+00       7    6    1        -0.1310904451E+02      0.1323880196E+02
          0                 2           2             7    6     1       0.3143434305E+00       7    6    1         0.1731088114E+02      0.1731508781E+02
          0                 3           2             7    6     1      -0.2799749592E-01       7    6    1        -0.1558014874E+01      0.1566350533E+01
          0                 4           2             7    6     1       0.2228677620E-02       7    6    1         0.1248103619E+00      0.1373620078E+00
          0                 5           2             8    2     1       0.2131687344E-03       7    6    1        -0.8769345256E-02      0.2691254882E-01
          0                 6           1             8    2     1       0.9581889455E-04       8    2    1         0.2488233357E-02      0.1136343902E-01
          0                 7           1             8    2     1       0.4307034708E-04       8    2    1         0.1118455426E-02      0.5079494884E-02
          0                 8           1             8    2     1       0.1935999062E-04       8    2    1         0.5027427518E-03      0.2274025916E-02
          0                 9           1             8    2     1       0.8702248590E-05       8    2    1         0.2259813096E-03      0.1018247729E-02

    ------------------------------------------------
       NWT REQUIRED            9 OUTER ITERATIONS 
       AND A TOTAL OF         14 INNER ITERATIONS.
    ------------------------------------------------

 NO OUTPUT CONTROL FOR STRESS PERIOD   22   TIME STEP   12
 
 SOLVING FOR HEAD 
                                                   Max.-Head-Change                         Max.-Flux-Residual
  Residual-Control   Outer-Iter.   Inner-Iter.     Column Row Layer    Maximum-Head-Change  Column Row Layer    Maximum-Flux-Residual          L2-NORM 
          0                 1           2             7    6     1      -0.2427896451E+00       7    6    1        -0.1324726750E+02      0.1336977334E+02
          0                 2           2             7    6     1       0.3145995048E+00       7    6    1         0.1732470426E+02      0.1732879228E+02
          0                 3           2             7    6     1      -0.2801894707E-01       7    6    1        -0.1559259280E+01      0.1567699559E+01
          0                 4           2             7    6     1       0.2230625181E-02       7    6    1         0.1249105512E+00      0.1374437258E+00
          0                 5           2             8    2     1       0.2130740851E-03       7    6    1        -0.8776208602E-02      0.2689151147E-01
          0                 6           1             8    2     1       0.9577628651E-04       8    2    1         0.2487128254E-02      0.1135048432E-01
          0                 7           1             8    2     1       0.4305116594E-04       8    2    1         0.1117957944E-02      0.5073607501E-02
          0                 8           1             8    2     1       0.1935135591E-04       8    2    1         0.5025187972E-03      0.2271404630E-02
          0                 9           1             8    2     1       0.8698360989E-05       8    2    1         0.2258804837E-03      0.1017089251E-02

    ------------------------------------------------
       NWT REQUIRED            9 OUTER ITERATIONS 
       AND A TOTAL OF         14 INNER ITERATIONS.
    ------------------------------------------------

 NO OUTPUT CONTROL FOR STRESS PERIOD   22   TIME STEP   13
 
 SOLVING FOR HEAD 
                                                   Max.-Head-Change                         Max.-Flux-Residual
  Residual-Control   Outer-Iter.   Inner-Iter.     Column Row Layer    Maximum-Head-Change  Column Row Layer    Maximum-Flux-Residual          L2-NORM 
          0                 1           2             7    6     1      -0.2451319018E+00       7    6    1        -0.1337670404E+02      0.1349320100E+02
          0                 2           2             7    6     1       0.3148390958E+00       7    6    1         0.1733764867E+02      0.1734163747E+02
          0                 3           2             7    6     1      -0.2803905984E-01       7    6    1        -0.1560424573E+01      0.1568961092E+01
          0                 4           2             7    6     1       0.2232443723E-02       7    6    1         0.1250043553E+00      0.1375187192E+00
          0                 5           2             8    2     1       0.2129794038E-03       7    6    1        -0.8782639703E-02      0.2686982653E-01
          0                 6           1             8    2     1       0.9573366208E-04       8    2    1         0.2486022776E-02      0.1133746189E-01
          0                 7           1             8    2     1       0.4303197667E-04       8    2    1         0.1117460268E-02      0.5067721399E-02
          0                 8           1             8    2     1       0.1934271670E-04       8    2    1         0.5022947425E-03      0.2268791176E-02
          0                 9           1             8    2     1       0.8694471638E-05       8    2    1         0.2257796142E-03      0.1015921773E-02

    ------------------------------------------------
       NWT REQUIRED            9 OUTER ITERATIONS 
       AND A TOTAL OF         14 INNER ITERATIONS.
    ------------------------------------------------

 NO OUTPUT CONTROL FOR STRESS PERIOD   22   TIME STEP   14
 
 SOLVING FOR HEAD 
                                                   Max.-Head-Change                         Max.-Flux-Residual
  Residual-Control   Outer-Iter.   Inner-Iter.     Column Row Layer    Maximum-Head-Change  Column Row Layer    Maximum-Flux-Residual          L2-NORM 
          0                 1           2             7    6     1      -0.2473276448E+00       7    6    1        -0.1349798960E+02      0.1360946322E+02
          0                 2           2             7    6     1       0.3150634082E+00       7    6    1         0.1734977792E+02      0.1735368281E+02
          0                 3           2             7    6     1      -0.2805792917E-01       7    6    1        -0.1561516475E+01      0.1570141146E+01
          0                 4           2             7    6     1       0.2234142915E-02       7    6    1         0.1250922370E+00      0.1375877782E+00
          0                 5           2             8    2     1       0.2128847036E-03       7    6    1        -0.8788669533E-02      0.2684792531E-01
          0                 6           1             8    2     1       0.9569102903E-04       8    2    1         0.2484917075E-02      0.1132451637E-01
          0                 7           1             8    2     1       0.4301278340E-04       8    2    1         0.1116962487E-02      0.5061883841E-02
          0                 8           1             8    2     1       0.1933407537E-04       8    2    1         0.5020706386E-03      0.2266204775E-02
          0                 9           1             8    2     1       0.8690581285E-05       8    2    1         0.2256787243E-03      0.1014786122E-02

    ------------------------------------------------
       NWT REQUIRED            9 OUTER ITERATIONS 
       AND A TOTAL OF         14 INNER ITERATIONS.
    ------------------------------------------------

 NO OUTPUT CONTROL FOR STRESS PERIOD   22   TIME STEP   15
 
 SOLVING FOR HEAD 
                                                   Max.-Head-Change                         Max.-Flux-Residual
  Residual-Control   Outer-Iter.   Inner-Iter.     Column Row Layer    Maximum-Head-Change  Column Row Layer    Maximum-Flux-Residual          L2-NORM 
          0                 1           2             7    6     1      -0.2493873040E+00       7    6    1        -0.1361170756E+02      0.1371895679E+02
          0                 2           2             7    6     1       0.3152735445E+00       7    6    1         0.1736115035E+02      0.1736498439E+02
          0                 3           2             7    6     1      -0.2807564276E-01       7    6    1        -0.1562540239E+01      0.1571245881E+01
          0                 4           2             7    6     1       0.2235731530E-02       7    6    1         0.1251746210E+00      0.1376524817E+00
          0                 5           2             8    2     1       0.2127918107E-03       7    6    1        -0.8794326654E-02      0.2682709109E-01
          0                 6           1             8    2     1       0.9564920434E-04       8    2    1         0.2483832441E-02      0.1131221693E-01
          0                 7           1             8    2     1       0.4299395141E-04       8    2    1         0.1116474133E-02      0.5056327409E-02
          0                 8           1             8    2     1       0.1932559635E-04       8    2    1         0.5018507588E-03      0.2263734771E-02
          0                 9           1             8    2     1       0.8686763590E-05       8    2    1         0.2255797208E-03      0.1013683758E-02

    ------------------------------------------------
       NWT REQUIRED            9 OUTER ITERATIONS 
       AND A TOTAL OF         14 INNER ITERATIONS.
    ------------------------------------------------

 NO OUTPUT CONTROL FOR STRESS PERIOD   22   TIME STEP   16
 
 SOLVING FOR HEAD 
                                                   Max.-Head-Change                         Max.-Flux-Residual
  Residual-Control   Outer-Iter.   Inner-Iter.     Column Row Layer    Maximum-Head-Change  Column Row Layer    Maximum-Flux-Residual          L2-NORM 
          0                 1           2             7    6     1      -0.2513203524E+00       7    6    1        -0.1371838849E+02      0.1382206982E+02
          0                 2           2             7    6     1       0.3154705100E+00       7    6    1         0.1737181901E+02      0.1737559296E+02
          0                 3           2             7    6     1      -0.2809228000E-01       7    6    1        -0.1563500643E+01      0.1572280605E+01
          0                 4           2             7    6     1       0.2237217627E-02       7    6    1         0.1252518937E+00      0.1377134282E+00
          0                 5           2             8    2     1       0.2126970345E-03       7    6    1        -0.8799636909E-02      0.2680748050E-01
          0                 6           1             8    2     1       0.9560653489E-04       8    2    1         0.2482725841E-02      0.1130056634E-01
          0                 7           1             8    2     1       0.4297474063E-04       8    2    1         0.1115975925E-02      0.5051043767E-02
          0                 8           1             8    2     1       0.1931694751E-04       8    2    1         0.5016264577E-03      0.2261380867E-02
          0                 9           1             8    2     1       0.8682869236E-05       8    2    1         0.2254787319E-03      0.1012637056E-02

    ------------------------------------------------
       NWT REQUIRED            9 OUTER ITERATIONS 
       AND A TOTAL OF         14 INNER ITERATIONS.
    ------------------------------------------------

 NO OUTPUT CONTROL FOR STRESS PERIOD   22   TIME STEP   17
 
 SOLVING FOR HEAD 
                                                   Max.-Head-Change                         Max.-Flux-Residual
  Residual-Control   Outer-Iter.   Inner-Iter.     Column Row Layer    Maximum-Head-Change  Column Row Layer    Maximum-Flux-Residual          L2-NORM 
          0                 1           2             7    6     1      -0.2531357346E+00       7    6    1        -0.1381853242E+02      0.1391919027E+02
          0                 2           2             7    6     1       0.3156552491E+00       7    6    1         0.1738183392E+02      0.1738555743E+02
          0                 3           2             7    6     1      -0.2810778740E-01       7    6    1        -0.1564371837E+01      0.1573158346E+01
          0                 4           2             7    6     1       0.2238512693E-02       7    6    1         0.1253266233E+00      0.1377560321E+00
          0                 5           2             8    2     1       0.2126022109E-03       7    6    1        -0.8804146646E-02      0.2678332801E-01
          0                 6           1             8    2     1       0.9556384194E-04       8    2    1         0.2481618679E-02      0.1128918222E-01
          0                 7           1             8    2     1       0.4295551910E-04       8    2    1         0.1115477448E-02      0.5045998390E-02
          0                 8           1             8    2     1       0.1930829305E-04       8    2    1         0.5014020213E-03      0.2259131846E-02
          0                 9           1             8    2     1       0.8678972631E-05       8    2    1         0.2253776787E-03      0.1011639710E-02

    ------------------------------------------------
       NWT REQUIRED            9 OUTER ITERATIONS 
       AND A TOTAL OF         14 INNER ITERATIONS.
    ------------------------------------------------

 NO OUTPUT CONTROL FOR STRESS PERIOD   22   TIME STEP   18
 
 SOLVING FOR HEAD 
                                                   Max.-Head-Change                         Max.-Flux-Residual
  Residual-Control   Outer-Iter.   Inner-Iter.     Column Row Layer    Maximum-Head-Change  Column Row Layer    Maximum-Flux-Residual          L2-NORM 
          0                 1           2             7    6     1      -0.2548415700E+00       7    6    1        -0.1391259355E+02      0.1401070132E+02
          0                 2           2             7    6     1       0.3158286206E+00       7    6    1         0.1739124050E+02      0.1739492054E+02
          0                 3           2             7    6     1      -0.2812238639E-01       7    6    1        -0.1565194257E+01      0.1573990109E+01
          0                 4           2             7    6     1       0.2239738339E-02       7    6    1         0.1253965556E+00      0.1377905894E+00
          0                 5           2             8    2     1       0.2125054964E-03       7    6    1        -0.8808438673E-02      0.2675435358E-01
          0                 6           1             8    2     1       0.9552030023E-04       8    2    1         0.2480489445E-02      0.1127529364E-01
          0                 7           1             8    2     1       0.4293591577E-04       8    2    1         0.1114969052E-02      0.5039808934E-02
          0                 8           1             8    2     1       0.1929946713E-04       8    2    1         0.5011731340E-03      0.2256364644E-02
          0                 9           1             8    2     1       0.8674999117E-05       8    2    1         0.2252746318E-03      0.1010393218E-02

    ------------------------------------------------
       NWT REQUIRED            9 OUTER ITERATIONS 
       AND A TOTAL OF         14 INNER ITERATIONS.
    ------------------------------------------------

 NO OUTPUT CONTROL FOR STRESS PERIOD   22   TIME STEP   19
 
 SOLVING FOR HEAD 
                                                   Max.-Head-Change                         Max.-Flux-Residual
  Residual-Control   Outer-Iter.   Inner-Iter.     Column Row Layer    Maximum-Head-Change  Column Row Layer    Maximum-Flux-Residual          L2-NORM 
          0                 1           2             7    6     1      -0.2564453447E+00       7    6    1        -0.1400098979E+02      0.1409690474E+02
          0                 2           2             7    6     1       0.3159914122E+00       7    6    1         0.1740008054E+02      0.1740372365E+02
          0                 3           2             7    6     1      -0.2813611296E-01       7    6    1        -0.1565965261E+01      0.1574764940E+01
          0                 4           2             7    6     1       0.2240880564E-02       7    6    1         0.1254624670E+00      0.1378230630E+00
          0                 5           2             8    2     1       0.2124105731E-03       7    6    1        -0.8812427418E-02      0.2672833079E-01
          0                 6           1             8    2     1       0.9547755925E-04       8    2    1         0.2479381099E-02      0.1126321272E-01
          0                 7           1             8    2     1       0.4291667073E-04       8    2    1         0.1114469997E-02      0.5034508399E-02
          0                 8           1             8    2     1       0.1929080153E-04       8    2    1         0.5009484226E-03      0.2254021620E-02
          0                 9           1             8    2     1       0.8671097010E-05       8    2    1         0.2251734490E-03      0.1009354189E-02

    ------------------------------------------------
       NWT REQUIRED            9 OUTER ITERATIONS 
       AND A TOTAL OF         14 INNER ITERATIONS.
    ------------------------------------------------

 NO OUTPUT CONTROL FOR STRESS PERIOD   22   TIME STEP   20
 
 SOLVING FOR HEAD 
                                                   Max.-Head-Change                         Max.-Flux-Residual
  Residual-Control   Outer-Iter.   Inner-Iter.     Column Row Layer    Maximum-Head-Change  Column Row Layer    Maximum-Flux-Residual          L2-NORM 
          0                 1           2             7    6     1      -0.1655628017E+00       7    6    1        -0.9043017324E+01      0.9188822406E+01
          0                 2           2             7    6     1       0.2154518107E+00       7    6    1         0.1186320026E+02      0.1186847834E+02
          0                 3           2             7    6     1      -0.1918047946E-01       7    6    1        -0.1067634671E+01      0.1078134772E+01
          0                 4           2             7    6     1       0.1528161632E-02       7    6    1         0.8554133635E-01      0.1026423448E+00
          0                 5           2             8    2     1       0.2123155944E-03       7    6    1        -0.6007451985E-02      0.2586887596E-01
          0                 6           1             8    2     1       0.9543479302E-04       8    2    1         0.2478272108E-02      0.1124185458E-01
          0                 7           1             8    2     1       0.4289741418E-04       8    2    1         0.1113970646E-02      0.5028913398E-02
          0                 8           1             8    2     1       0.1928213043E-04       8    2    1         0.5007235719E-03      0.2251640965E-02
          0                 9           1             8    2     1       0.8667192776E-05       8    2    1         0.2250722027E-03      0.1008302399E-02

    ------------------------------------------------
       NWT REQUIRED            9 OUTER ITERATIONS 
       AND A TOTAL OF         14 INNER ITERATIONS.
    ------------------------------------------------

 NO OUTPUT CONTROL FOR STRESS PERIOD   22   TIME STEP   21
 
 SOLVING FOR HEAD 
                                                   Max.-Head-Change                         Max.-Flux-Residual
  Residual-Control   Outer-Iter.   Inner-Iter.     Column Row Layer    Maximum-Head-Change  Column Row Layer    Maximum-Flux-Residual          L2-NORM 
          0                 1           2             7    6     1       0.3386740501E-01       7    6    1         0.1837675529E+01      0.2449868937E+01
          0                 2           2             7    6     1      -0.3300623644E-02       7    6    1        -0.1837688766E+00      0.4064618365E+00
          0                 3           2             8    2     1       0.1050357376E-02       8    2    1         0.2727586083E-01      0.1315802379E+00
          0                 4           2             8    2     1       0.4721310049E-03       8    2    1         0.1226038994E-01      0.5636535539E-01
          0                 5           2             8    2     1       0.2122205784E-03       8    2    1         0.5510990182E-02      0.2508502721E-01
          0                 6           1             8    2     1       0.9539201077E-04       8    2    1         0.2477162680E-02      0.1122033710E-01
          0                 7           1             8    2     1       0.4287815062E-04       8    2    1         0.1113471113E-02      0.5022901878E-02
          0                 8           1             8    2     1       0.1927345683E-04       8    2    1         0.5004986521E-03      0.2249055887E-02
          0                 9           1             8    2     1       0.8663287418E-05       8    2    1         0.2249709290E-03      0.1007157490E-02

    ------------------------------------------------
       NWT REQUIRED            9 OUTER ITERATIONS 
       AND A TOTAL OF         14 INNER ITERATIONS.
    ------------------------------------------------

 NO OUTPUT CONTROL FOR STRESS PERIOD   22   TIME STEP   22
 
 SOLVING FOR HEAD 
                                                   Max.-Head-Change                         Max.-Flux-Residual
  Residual-Control   Outer-Iter.   Inner-Iter.     Column Row Layer    Maximum-Head-Change  Column Row Layer    Maximum-Flux-Residual          L2-NORM 
          0                 1           2             7    6     1       0.3252983943E-01       7    6    1         0.1764055336E+01      0.2389815139E+01
          0                 2           2             7    6     1      -0.3165118843E-02       7    6    1        -0.1764068314E+00      0.4033772125E+00
          0                 3           2             8    2     1       0.1049879203E-02       8    2    1         0.2726346040E-01      0.1314680164E+00
          0                 4           2             8    2     1       0.4719157093E-03       8    2    1         0.1225480673E-01      0.5632109122E-01
          0                 5           2             8    2     1       0.2121236421E-03       8    2    1         0.5508476366E-02      0.2506324830E-01
          0                 6           1             8    2     1       0.9534836527E-04       8    2    1         0.2476030839E-02      0.1121043342E-01
          0                 7           1             8    2     1       0.4285849890E-04       8    2    1         0.1112961499E-02      0.5018466565E-02
          0                 8           1             8    2     1       0.1926460890E-04       8    2    1         0.5002691988E-03      0.2247071752E-02
          0                 9           1             8    2     1       0.8659303399E-05       8    2    1         0.2248676129E-03      0.1006272577E-02

    ------------------------------------------------
       NWT REQUIRED            9 OUTER ITERATIONS 
       AND A TOTAL OF         14 INNER ITERATIONS.
    ------------------------------------------------

 NO OUTPUT CONTROL FOR STRESS PERIOD   22   TIME STEP   23
 
 SOLVING FOR HEAD 
                                                   Max.-Head-Change                         Max.-Flux-Residual
  Residual-Control   Outer-Iter.   Inner-Iter.     Column Row Layer    Maximum-Head-Change  Column Row Layer    Maximum-Flux-Residual          L2-NORM 
          0                 1           2             7    6     1       0.3126933732E-01       7    6    1         0.1694705254E+01      0.2334593925E+01
          0                 2           2             7    6     1      -0.3037555941E-02       7    6    1        -0.1694717924E+00      0.4006340007E+00
          0                 3           2             8    2     1       0.1049409975E-02       8    2    1         0.2725129276E-01      0.1313720949E+00
          0                 4           2             8    2     1       0.4717044246E-03       8    2    1         0.1224932789E-01      0.5628043407E-01
          0                 5           2             8    2     1       0.2120285042E-03       8    2    1         0.5506009344E-02      0.2504295245E-01
          0                 6           1             8    2     1       0.9530552575E-04       8    2    1         0.2474919977E-02      0.1120114609E-01
          0                 7           1             8    2     1       0.4283920909E-04       8    2    1         0.1112461296E-02      0.5014287822E-02
          0                 8           1             8    2     1       0.1925592267E-04       8    2    1         0.5000439625E-03      0.2245196769E-02
          0                 9           1             8    2     1       0.8655391912E-05       8    2    1         0.2247661940E-03      0.1005431800E-02

    ------------------------------------------------
       NWT REQUIRED            9 OUTER ITERATIONS 
       AND A TOTAL OF         14 INNER ITERATIONS.
    ------------------------------------------------

 NO OUTPUT CONTROL FOR STRESS PERIOD   22   TIME STEP   24
 
 SOLVING FOR HEAD 
                                                   Max.-Head-Change                         Max.-Flux-Residual
  Residual-Control   Outer-Iter.   Inner-Iter.     Column Row Layer    Maximum-Head-Change  Column Row Layer    Maximum-Flux-Residual          L2-NORM 
          0                 1           2             7    6     1       0.3008103018E-01       7    6    1         0.1629353653E+01      0.2283752503E+01
          0                 2           2             7    6     1      -0.2917424517E-02       7    6    1        -0.1629365981E+00      0.3981569985E+00
          0                 3           2             8    2     1       0.1048931263E-02       8    2    1         0.2723887856E-01      0.1312743639E+00
          0                 4           2             8    2     1       0.4714888835E-03       8    2    1         0.1224373838E-01      0.5623666698E-01
          0                 5           2             8    2     1       0.2119314555E-03       8    2    1         0.5503492646E-02      0.2502155343E-01
          0                 6           1             8    2     1       0.9526182923E-04       8    2    1         0.2473786822E-02      0.1119148168E-01
          0                 7           1             8    2     1       0.4281953448E-04       8    2    1         0.1111951084E-02      0.5009983406E-02
          0                 8           1             8    2     1       0.1924706386E-04       8    2    1         0.4998142335E-03      0.2243282615E-02
          0                 9           1             8    2     1       0.8651403266E-05       8    2    1         0.2246627563E-03      0.1004579985E-02

    ------------------------------------------------
       NWT REQUIRED            9 OUTER ITERATIONS 
       AND A TOTAL OF         14 INNER ITERATIONS.
    ------------------------------------------------

 NO OUTPUT CONTROL FOR STRESS PERIOD   22   TIME STEP   25
 
 SOLVING FOR HEAD 
                                                   Max.-Head-Change                         Max.-Flux-Residual
  Residual-Control   Outer-Iter.   Inner-Iter.     Column Row Layer    Maximum-Head-Change  Column Row Layer    Maximum-Flux-Residual          L2-NORM 
          0                 1           2             7    6     1       0.2896007485E-01       7    6    1         0.1567730680E+01      0.2236868849E+01
          0                 2           2             7    6     1      -0.2804218545E-02       7    6    1        -0.1567742642E+00      0.3958933317E+00
          0                 3           2             8    2     1       0.1048461431E-02       8    2    1         0.2722669582E-01      0.1311597793E+00
          0                 4           2             8    2     1       0.4712773152E-03       8    2    1         0.1223825243E-01      0.5618121286E-01
          0                 5           2             8    2     1       0.2118361850E-03       8    2    1         0.5501022287E-02      0.2499402402E-01
          0                 6           1             8    2     1       0.9521892780E-04       8    2    1         0.2472674400E-02      0.1117867075E-01
          0                 7           1             8    2     1       0.4280021565E-04       8    2    1         0.1111450155E-02      0.5004093704E-02
          0                 8           1             8    2     1       0.1923836450E-04       8    2    1         0.4995886636E-03      0.2240581216E-02
          0                 9           1             8    2     1       0.8647485777E-05       8    2    1         0.2245611812E-03      0.1003342252E-02

    ------------------------------------------------
       NWT REQUIRED            9 OUTER ITERATIONS 
       AND A TOTAL OF         14 INNER ITERATIONS.
    ------------------------------------------------

 NO OUTPUT CONTROL FOR STRESS PERIOD   22   TIME STEP   26
 
 SOLVING FOR HEAD 
                                                   Max.-Head-Change                         Max.-Flux-Residual
  Residual-Control   Outer-Iter.   Inner-Iter.     Column Row Layer    Maximum-Head-Change  Column Row Layer    Maximum-Flux-Residual          L2-NORM 
          0                 1           2             7    6     1       0.2790221944E-01       7    6    1         0.1509599331E+01      0.2193476110E+01
          0                 2           2             7    6     1      -0.2697493242E-02       7    6    1        -0.1509610910E+00      0.3936650338E+00
          0                 3           2             8    2     1       0.1047982098E-02       8    2    1         0.2721426582E-01      0.1309419668E+00
          0                 4           2             8    2     1       0.4710614879E-03       8    2    1         0.1223265563E-01      0.5607750269E-01
          0                 5           2             8    2     1       0.2117390051E-03       8    2    1         0.5498502238E-02      0.2494584354E-01
          0                 6           1             8    2     1       0.9517517113E-04       8    2    1         0.2471539706E-02      0.1115711735E-01
          0                 7           1             8    2     1       0.4278051328E-04       8    2    1         0.1110939235E-02      0.4994527253E-02
          0                 8           1             8    2     1       0.1922949319E-04       8    2    1         0.4993586120E-03      0.2236391681E-02
          0                 9           1             8    2     1       0.8643491504E-05       8    2    1         0.2244575950E-03      0.1001590338E-02

    ------------------------------------------------
       NWT REQUIRED            9 OUTER ITERATIONS 
       AND A TOTAL OF         14 INNER ITERATIONS.
    ------------------------------------------------

 NO OUTPUT CONTROL FOR STRESS PERIOD   22   TIME STEP   27
 
 SOLVING FOR HEAD 
                                                   Max.-Head-Change                         Max.-Flux-Residual
  Residual-Control   Outer-Iter.   Inner-Iter.     Column Row Layer    Maximum-Head-Change  Column Row Layer    Maximum-Flux-Residual          L2-NORM 
          0                 1           2             7    6     1       0.2690329660E-01       7    6    1         0.1454727790E+01      0.2153759393E+01
          0                 2           2             8    2     1       0.2330403897E-02       8    2    1         0.6051650439E-01      0.3642806933E+00
          0                 3           2             8    2     1       0.1047502462E-02       8    2    1         0.2720182818E-01      0.1303236090E+00
          0                 4           2             8    2     1       0.4708455195E-03       8    2    1         0.1222705528E-01      0.5602792857E-01
          0                 5           2             8    2     1       0.2116417601E-03       8    2    1         0.5495980540E-02      0.2492506802E-01
          0                 6           1             8    2     1       0.9513138406E-04       8    2    1         0.2470404248E-02      0.1114769092E-01
          0                 7           1             8    2     1       0.4276079702E-04       8    2    1         0.1110427969E-02      0.4990327374E-02
          0                 8           1             8    2     1       0.1922061562E-04       8    2    1         0.4991284047E-03      0.2234475826E-02
          0                 9           1             8    2     1       0.8639494104E-05       8    2    1         0.2243539398E-03      0.1000635585E-02

    ------------------------------------------------
       NWT REQUIRED            9 OUTER ITERATIONS 
       AND A TOTAL OF         14 INNER ITERATIONS.
    ------------------------------------------------

 NO OUTPUT CONTROL FOR STRESS PERIOD   22   TIME STEP   28
 
 SOLVING FOR HEAD 
                                                   Max.-Head-Change                         Max.-Flux-Residual
  Residual-Control   Outer-Iter.   Inner-Iter.     Column Row Layer    Maximum-Head-Change  Column Row Layer    Maximum-Flux-Residual          L2-NORM 
          0                 1           2             7    6     1       0.2858883166E-01       7    6    1         0.1546300474E+01      0.2215410317E+01
          0                 2           2             7    6     1       0.4689674105E-02       7    6    1         0.2533143740E+00      0.4439236233E+00
          0                 3           2             8    2     1       0.1047022589E-02       7    6    1         0.4158739249E-01      0.1370341691E+00
          0                 4           2             8    2     1       0.4706294540E-03       8    2    1         0.1222145220E-01      0.5644813653E-01
          0                 5           2             8    2     1       0.2115444753E-03       8    2    1         0.5493457720E-02      0.2493732043E-01
          0                 6           1             8    2     1       0.9508758124E-04       8    2    1         0.2469268336E-02      0.1114174374E-01
          0                 7           1             8    2     1       0.4274107477E-04       8    2    1         0.1109916518E-02      0.4986906877E-02
          0                 8           1             8    2     1       0.1921173543E-04       8    2    1         0.4988981179E-03      0.2232890537E-02
          0                 9           1             8    2     1       0.8635495829E-05       8    2    1         0.2242502516E-03      0.9999243349E-03

    ------------------------------------------------
       NWT REQUIRED            9 OUTER ITERATIONS 
       AND A TOTAL OF         14 INNER ITERATIONS.
    ------------------------------------------------

 NO OUTPUT CONTROL FOR STRESS PERIOD   22   TIME STEP   29
 
 SOLVING FOR HEAD 
                                                   Max.-Head-Change                         Max.-Flux-Residual
  Residual-Control   Outer-Iter.   Inner-Iter.     Column Row Layer    Maximum-Head-Change  Column Row Layer    Maximum-Flux-Residual          L2-NORM 
          0                 1           2             7    6     1       0.2715948999E-01       7    6    1         0.1467683483E+01      0.2162759464E+01
          0                 2           2             7    6     1       0.4461712123E-02       7    6    1         0.2407802717E+00      0.4376072068E+00
          0                 3           2             8    2     1       0.1046551567E-02       7    6    1         0.3958792233E-01      0.1364644407E+00
          0                 4           2             8    2     1       0.4704173454E-03       8    2    1         0.1221595233E-01      0.5638039168E-01
          0                 5           2             8    2     1       0.2114489593E-03       8    2    1         0.5490981036E-02      0.2491831004E-01
          0                 6           1             8    2     1       0.9504456927E-04       8    2    1         0.2468153052E-02      0.1113381672E-01
          0                 7           1             8    2     1       0.4272170604E-04       8    2    1         0.1109414292E-02      0.4983366954E-02
          0                 8           1             8    2     1       0.1920301368E-04       8    2    1         0.4986719602E-03      0.2231293652E-02
          0                 9           1             8    2     1       0.8631567835E-05       8    2    1         0.2241484079E-03      0.9998411545E-03

    ------------------------------------------------
       NWT REQUIRED            9 OUTER ITERATIONS 
       AND A TOTAL OF         14 INNER ITERATIONS.
    ------------------------------------------------

 NO OUTPUT CONTROL FOR STRESS PERIOD   22   TIME STEP   30



 STREAM LISTING     PERIOD     22   STEP       30

 LAYER ROW COL. STREAM  RCH.  FLOW INTO     FLOW TO   FLOW OUT OF   OVRLND.     DIRECT     STREAM       STREAM     STREAM     STREAM   STREAMBED  STREAMBED
                SEG.NO.  NO.  STRM. RCH.    AQUIFER    STRM. RCH.    RUNOFF     PRECIP       ET          HEAD       DEPTH      WIDTH   CONDCTNC.   GRADIENT

   1    1    1     1     1    3.4452E+00  8.2729E-10   3.4452E+00  0.000E+00  0.000E+00  0.000E+00  1.09371E+03  6.618E-01  5.021E+00  2.259E-10  1.221E+00
   1    2    2     1     2    3.4452E+00  1.2835E-09   3.4452E+00  0.000E+00  0.000E+00  0.000E+00  1.08872E+03  6.602E-01  5.009E+00  3.506E-10  1.220E+00
   1    3    3     1     3    3.4452E+00  1.1013E-09   3.4452E+00  0.000E+00  0.000E+00  0.000E+00  1.08308E+03  6.608E-01  5.014E+00  3.008E-10  1.220E+00
   1    3    4     1     4    3.4452E+00  1.0192E-09   3.4452E+00  0.000E+00  0.000E+00  0.000E+00  1.07807E+03  6.611E-01  5.016E+00  2.784E-10  1.220E+00
   1    4    5     2     1    1.4452E+00  2.5013E-01   1.1951E+00  0.000E+00  0.000E+00  0.000E+00  1.07214E+03  2.068E-01  1.200E+01  7.800E-02  1.069E+00
   1    5    6     2     2    1.1951E+00  1.9112E-01   1.0040E+00  0.000E+00  0.000E+00  0.000E+00  1.06669E+03  1.853E-01  1.200E+01  6.000E-02  1.062E+00
   1    6    6     2     3    1.0040E+00  1.8992E-01   8.1404E-01  0.000E+00  0.000E+00  0.000E+00  1.06196E+03  1.653E-01  1.200E+01  6.000E-02  1.055E+00
   1    7    6     2     4    8.1404E-01  1.8862E-01   6.2542E-01  0.000E+00  0.000E+00  0.000E+00  1.05722E+03  1.437E-01  1.200E+01  6.000E-02  1.048E+00
   1    8    6     2     5    6.2542E-01  1.8719E-01   4.3823E-01  0.000E+00  0.000E+00  0.000E+00  1.05248E+03  1.198E-01  1.200E+01  6.000E-02  1.040E+00
   1    3    5     3     1    2.0000E+00  2.8252E-01   1.7175E+00  0.000E+00  0.000E+00  0.000E+00  1.07555E+03  1.909E+00  9.636E+00  7.227E-02  1.955E+00
   1    3    6     3     2    1.7175E+00  2.4905E-01   1.4684E+00  0.000E+00  0.000E+00  0.000E+00  1.07264E+03  1.727E+00  8.909E+00  6.682E-02  1.864E+00
   1    3    7     3     3    1.4684E+00  1.9718E-01   1.2712E+00  0.000E+00  0.000E+00  0.000E+00  1.06987E+03  1.555E+00  8.218E+00  5.547E-02  1.777E+00
   1    4    8     3     4    1.2712E+00  2.2567E-01   1.0456E+00  0.000E+00  0.000E+00  0.000E+00  1.06682E+03  1.364E+00  7.455E+00  6.709E-02  1.682E+00
   1    5    8     3     5    1.0456E+00  1.5790E-01   8.8768E-01  0.000E+00  0.000E+00  0.000E+00  1.06362E+03  1.164E+00  6.655E+00  4.991E-02  1.582E+00
   1    6    8     3     6    8.8768E-01  5.5980E-02   8.3170E-01  0.000E+00  0.000E+00  0.000E+00  1.06158E+03  1.036E+00  6.145E+00  1.844E-02  1.518E+00
   1    5   10     4     1    1.0000E+01  9.0919E-02   9.9091E+00  0.000E+00  0.000E+00  0.000E+00  1.07836E+03  6.368E-01  1.000E+01  2.500E-02  1.212E+00
   1    5    9     4     2    9.9091E+00  1.8158E-01   9.7275E+00  0.000E+00  0.000E+00  0.000E+00  1.07154E+03  6.315E-01  1.000E+01  5.000E-02  1.211E+00
   1    6    8     4     3    9.7275E+00  1.2689E-01   9.6006E+00  0.000E+00  0.000E+00  0.000E+00  1.06381E+03  6.256E-01  1.000E+01  3.500E-02  1.209E+00
   1    6    8     5     1    1.0432E+01  2.2686E-09   1.0432E+01  0.000E+00  0.000E+00  0.000E+00  1.05868E+03  6.790E-01  1.542E+01  6.166E-10  1.226E+00
   1    7    7     5     2    1.0432E+01  2.8306E-09   1.0432E+01  0.000E+00  0.000E+00  0.000E+00  1.05418E+03  6.784E-01  1.539E+01  7.695E-10  1.226E+00
   1    8    7     5     3    1.0432E+01  1.9868E-09   1.0432E+01  0.000E+00  0.000E+00  0.000E+00  1.04993E+03  6.794E-01  1.543E+01  5.400E-10  1.226E+00
   1    8    6     5     4    1.0432E+01  1.4217E-09   1.0432E+01  0.000E+00  0.000E+00  0.000E+00  1.04693E+03  6.800E-01  1.545E+01  3.863E-10  1.227E+00
   1    9    6     6     1    1.0871E+01  2.2417E-01   1.0646E+01  0.000E+00  0.000E+00  0.000E+00  1.04346E+03  7.362E-01  1.200E+01  6.000E-02  1.245E+00
   1   10    7     6     2    1.0646E+01  2.2362E-01   1.0423E+01  0.000E+00  0.000E+00  0.000E+00  1.03891E+03  7.270E-01  1.200E+01  6.000E-02  1.242E+00
   1   11    7     6     3    1.0423E+01  2.2306E-01   1.0200E+01  0.000E+00  0.000E+00  0.000E+00  1.03435E+03  7.177E-01  1.200E+01  6.000E-02  1.239E+00
   1   12    7     6     4    1.0200E+01  2.2250E-01   9.9772E+00  0.000E+00  0.000E+00  0.000E+00  1.02980E+03  7.084E-01  1.200E+01  6.000E-02  1.236E+00
   1   13    7     6     5    9.9772E+00  8.8843E-02   9.8883E+00  0.000E+00  0.000E+00  0.000E+00  1.02661E+03  7.018E-01  1.200E+01  2.400E-02  1.234E+00
   1   14    9     7     1    1.5000E+02  2.9539E-08   1.5000E+02  0.000E+00  0.000E+00  0.000E+00  1.03986E+03  2.283E+00  5.528E+01  5.591E-09  1.761E+00
   1   13    8     7     2    1.5000E+02  3.2486E-14   1.5000E+02  0.000E+00  0.000E+00  0.000E+00  1.03478E+03  2.283E+00  5.527E+01  6.150E-15  1.761E+00
   1   13    7     7     3    1.5000E+02  2.9539E-08   1.5000E+02  0.000E+00  0.000E+00  0.000E+00  1.02970E+03  2.283E+00  5.528E+01  5.591E-09  1.761E+00
   1   13    6     8     1    1.5989E+02  2.4979E-09   1.5989E+02  0.000E+00  0.000E+00  0.000E+00  1.02475E+03  2.877E+00  4.171E+01  4.250E-10  1.959E+00
   1   13    5     8     2    1.5989E+02  2.4979E-11   1.5989E+02  0.000E+00  0.000E+00  0.000E+00  1.01850E+03  2.877E+00  4.171E+01  4.250E-12  1.959E+00
   1   13    4     8     3    1.5989E+02  1.6061E-32   1.5989E+02  0.000E+00  0.000E+00  0.000E+00  1.01226E+03  2.885E+00  4.183E+01  4.263E-33  1.256E+00
   1   13    3     8     4    1.5989E+02  3.6161E-05   1.5989E+02  0.000E+00  0.000E+00  0.000E+00  1.00601E+03  2.884E+00  4.182E+01  4.261E-05  2.829E-01
   1   13    2     8     5    1.5989E+02 -8.2490E-01   1.6071E+02  0.000E+00  0.000E+00  0.000E+00  9.99763E+02  2.888E+00  4.187E+01  4.267E+00 -6.444E-02
   1   13    1     8     6    1.6071E+02 -1.0204E+00   1.6173E+02  0.000E+00  0.000E+00  0.000E+00  9.94769E+02  2.894E+00  4.196E+01  2.566E+00 -1.326E-01
   1    6    8     9     1    0.0000E+00  0.0000E+00   0.0000E+00  0.000E+00  0.000E+00  0.000E+00  1.07850E+03  0.000E+00  4.000E+00  0.000E+00  1.000E+00





UNSATURATED ZONE PACKAGE VOLUMETRIC BUDGET FOR  TIME STEP    30 STRESS PERIOD   22
  ------------------------------------------------------------------------------



     CUMULATIVE VOLUMES      L**3       RATES FOR THIS TIME STEP      L**3/T
     ------------------                 ------------------------

           IN:                                      IN:
           ---                                      ---
        INFILTRATION =   130944674.6154          INFILTRATION =           0.8475

          OUT:                                     OUT:
          ----                                     ----
              UZF ET =   618642725.2318                UZF ET =           1.6988
        UZF RECHARGE =  1439645608.3103          UZF RECHARGE =          23.1539

            IN - OUT = -1927343658.9267              IN - OUT =         -24.0052

          STORAGE:                                 STORAGE:
          --------                                 --------
      STORAGE CHANGE = -1927317927.3097        STORAGE CHANGE =         -24.0052

 PERCENT DISCREPANCY IS DIFFERENCE BETWEEN IN-OUT MINUS CHANGE IN STORAGE
 DIVIDED BY THE AVERAGE OF IN AND OUT TIMES 100

 PERCENT DISCREPANCY =          -0.00     PERCENT DISCREPANCY =           0.00






1
  VOLUMETRIC BUDGET FOR ENTIRE MODEL AT END OF TIME STEP   30, STRESS PERIOD  22
  ------------------------------------------------------------------------------

     CUMULATIVE VOLUMES      L**3       RATES FOR THIS TIME STEP      L**3/T
     ------------------                 ------------------------

           IN:                                      IN:
           ---                                      ---
             STORAGE =    48382388.0000               STORAGE =       9.0279E-02
       CONSTANT HEAD =           0.0000         CONSTANT HEAD =           0.0000
               WELLS =           0.0000                 WELLS =           0.0000
     HEAD DEP BOUNDS =    59193940.0000       HEAD DEP BOUNDS =           0.9772
      STREAM LEAKAGE =   228420816.0000        STREAM LEAKAGE =           3.5569
        UZF RECHARGE =  1439645312.0000          UZF RECHARGE =          23.1539
               GW ET =           0.0000                 GW ET =           0.0000
     SURFACE LEAKAGE =           0.0000       SURFACE LEAKAGE =           0.0000

            TOTAL IN =  1775642496.0000              TOTAL IN =          27.7782

          OUT:                                     OUT:
          ----                                     ----
             STORAGE =  1523502464.0000               STORAGE =          23.7882
       CONSTANT HEAD =           0.0000         CONSTANT HEAD =           0.0000
               WELLS =    16979570.0000                 WELLS =           0.0000
     HEAD DEP BOUNDS =    16373765.0000       HEAD DEP BOUNDS =           0.2723
      STREAM LEAKAGE =   138858352.0000        STREAM LEAKAGE =           1.8453
        UZF RECHARGE =           0.0000          UZF RECHARGE =           0.0000
               GW ET =    79750328.0000                 GW ET =           1.8692
     SURFACE LEAKAGE =           0.0000       SURFACE LEAKAGE =           0.0000

           TOTAL OUT =  1775464448.0000             TOTAL OUT =          27.7751

            IN - OUT =      178048.0000              IN - OUT =       3.1395E-03

 PERCENT DISCREPANCY =           0.01     PERCENT DISCREPANCY =           0.01






         TIME SUMMARY AT END OF TIME STEP   30 IN STRESS PERIOD   22
                    SECONDS     MINUTES      HOURS       DAYS        YEARS
                    -----------------------------------------------------------
   TIME STEP LENGTH  87600.      1460.0      24.333      1.0139     2.77588E-03
 STRESS PERIOD TIME 2.62800E+06  43800.      730.00      30.417     8.32763E-02
         TOTAL TIME 5.78160E+07 9.63600E+05  16060.      669.17      1.8321    
1
1
                            STRESS PERIOD NO.   23, LENGTH =   2628000.    
                            -----------------------------------------------

                              NUMBER OF TIME STEPS =    30

                               MULTIPLIER FOR DELT =     1.000

                            INITIAL TIME STEP SIZE =   87600.00    

 WELL NO.  LAYER   ROW   COL   STRESS RATE         
 --------------------------------------------------
      1      1      6      4       0.000    
      2      1      6      7       0.000    
      3      1      7      4       0.000    
      4      1      7      5       0.000    
      5      1      8      4       0.000    
      6      1      8      5       0.000    
      7      1      9      4       0.000    
      8      1      9      5       0.000    
      9      1     10      4       0.000    
     10      1     10      5       0.000    

     10 WELLS

 REUSING NON-PARAMETER GHB CELLS FROM LAST STRESS PERIOD

      2 GHB CELLS

 REUSING STREAM SEGMENT DATA FROM LAST STRESS PERIOD



            AREAL INFILTRATION RATE
 READING ON UNIT   19 WITH FORMAT: (10F4.0)            

            1           2           3           4           5           6           7           8           9          10
 ........................................................................................................................
   1   1.0000E-10  2.0000E-10   0.000       0.000       0.000       0.000       0.000       0.000       0.000       0.000    
   2   2.0000E-10  1.0000E-10  2.0000E-10   0.000       0.000      8.0000E-10  8.0000E-10  5.0000E-10   0.000       0.000    
   3    0.000      5.0000E-10  1.0000E-10  1.0000E-10  8.0000E-10  8.0000E-10  5.0000E-10  5.0000E-10   0.000       0.000    
   4   8.0000E-10  5.0000E-10  1.0000E-10  1.0000E-10  1.0000E-10  1.0000E-10  1.0000E-10  1.0000E-10  2.0000E-10   0.000    
   5   8.0000E-10  5.0000E-10  1.0000E-10  1.0000E-10  1.0000E-10  1.0000E-10  1.0000E-10  1.0000E-10  1.0000E-10  1.0000E-10
   6   8.0000E-10  5.0000E-10  5.0000E-10  2.0000E-10  2.0000E-10  1.0000E-10  1.0000E-10  1.0000E-10  1.0000E-10  5.0000E-10
   7   8.0000E-10  5.0000E-10  5.0000E-10  2.0000E-10  2.0000E-10  1.0000E-10  1.0000E-10  2.0000E-10  2.0000E-10   0.000    
   8    0.000      5.0000E-10  5.0000E-10  2.0000E-10  2.0000E-10  1.0000E-10  1.0000E-10  2.0000E-10  5.0000E-10   0.000    
   9    0.000      5.0000E-10  5.0000E-10  2.0000E-10  2.0000E-10  1.0000E-10  1.0000E-10  2.0000E-10  5.0000E-10   0.000    
  10    0.000      5.0000E-10  5.0000E-10  2.0000E-10  2.0000E-10  1.0000E-10  1.0000E-10  2.0000E-10  5.0000E-10  8.0000E-10
  11    0.000      1.0000E-10  1.0000E-10  1.0000E-10  1.0000E-10  1.0000E-10  1.0000E-10  2.0000E-10  5.0000E-10   0.000    
  12   1.0000E-10  1.0000E-10  1.0000E-10  1.0000E-10  1.0000E-10  1.0000E-10  1.0000E-10  1.0000E-10  2.0000E-10   0.000    
  13   1.0000E-10  1.0000E-10  2.0000E-10  2.0000E-10  2.0000E-10  2.0000E-10  2.0000E-10  1.0000E-10  1.0000E-10   0.000    
  14    0.000      2.0000E-10  5.0000E-10  5.0000E-10  5.0000E-10  5.0000E-10  5.0000E-10  2.0000E-10  1.0000E-10   0.000    
  15    0.000       0.000      8.0000E-10  8.0000E-10  8.0000E-10  8.0000E-10   0.000       0.000       0.000       0.000    

                  ET RATE =  1.000000E-10

 USING ET EXTINCTION DEPTH FROM PREVIOUS STRESS PERIOD. CURRENT PERIOD IS:      23

 USING EXTINCTION WATER CONTENT FROM PREVIOUS STRESS PERIOD. CURRENT PERIOD IS:      23
 
 SOLVING FOR HEAD 
                                                   Max.-Head-Change                         Max.-Flux-Residual
  Residual-Control   Outer-Iter.   Inner-Iter.     Column Row Layer    Maximum-Head-Change  Column Row Layer    Maximum-Flux-Residual          L2-NORM 
          0                 1           2             7    6     1       0.2583178513E-01       7    6    1         0.1394712637E+01      0.2612435890E+01
          0                 2           2             7    6     1       0.4249688812E-02       7    6    1         0.2291318546E+00      0.4579755433E+00
          0                 3           2             8    2     1       0.1046070997E-02       7    6    1         0.3772731907E-01      0.1366136600E+00
          0                 4           2             8    2     1       0.4702009539E-03       8    2    1         0.1221034105E-01      0.5632153129E-01
          0                 5           2             8    2     1       0.2113515229E-03       8    2    1         0.5488454390E-02      0.2489788352E-01
          0                 6           1             8    2     1       0.9500069566E-04       8    2    1         0.2467015354E-02      0.1112527950E-01
          0                 7           1             8    2     1       0.4270195102E-04       8    2    1         0.1108902015E-02      0.4979602239E-02
          0                 8           1             8    2     1       0.1919411823E-04       8    2    1         0.4984412941E-03      0.2229618514E-02
          0                 9           1             8    2     1       0.8627562932E-05       8    2    1         0.2240445498E-03      0.9984532452E-03

    ------------------------------------------------
       NWT REQUIRED            9 OUTER ITERATIONS 
       AND A TOTAL OF         14 INNER ITERATIONS.
    ------------------------------------------------

 NO OUTPUT CONTROL FOR STRESS PERIOD   23   TIME STEP    1
 
 SOLVING FOR HEAD 
                                                   Max.-Head-Change                         Max.-Flux-Residual
  Residual-Control   Outer-Iter.   Inner-Iter.     Column Row Layer    Maximum-Head-Change  Column Row Layer    Maximum-Flux-Residual          L2-NORM 
          0                 1           2             7    6     1       0.2459787583E-01       7    6    1         0.1326908127E+01      0.2541933447E+01
          0                 2           2             7    6     1       0.4052595016E-02       7    6    1         0.2183052105E+00      0.4512773625E+00
          0                 3           2             8    2     1       0.1045590157E-02       7    6    1         0.3599757377E-01      0.1360792152E+00
          0                 4           2             8    2     1       0.4699844471E-03       8    2    1         0.1220472664E-01      0.5624154745E-01
          0                 5           2             8    2     1       0.2112540375E-03       8    2    1         0.5485926404E-02      0.2486948336E-01
          0                 6           1             8    2     1       0.9495680155E-04       8    2    1         0.2465877088E-02      0.1111243500E-01
          0                 7           1             8    2     1       0.4268218687E-04       8    2    1         0.1108389493E-02      0.4973614877E-02
          0                 8           1             8    2     1       0.1918521940E-04       8    2    1         0.4982105274E-03      0.2226828676E-02
          0                 9           1             8    2     1       0.8623556153E-05       8    2    1         0.2239406437E-03      0.9971603253E-03

    ------------------------------------------------
       NWT REQUIRED            9 OUTER ITERATIONS 
       AND A TOTAL OF         14 INNER ITERATIONS.
    ------------------------------------------------

 NO OUTPUT CONTROL FOR STRESS PERIOD   23   TIME STEP    2
 
 SOLVING FOR HEAD 
                                                   Max.-Head-Change                         Max.-Flux-Residual
  Residual-Control   Outer-Iter.   Inner-Iter.     Column Row Layer    Maximum-Head-Change  Column Row Layer    Maximum-Flux-Residual          L2-NORM 
          0                 1           2             7    6     1       0.2345041417E-01       7    6    1         0.1263885462E+01      0.2477492320E+01
          0                 2           2             7    6     1       0.3869159217E-02       7    6    1         0.2082339380E+00      0.4451909401E+00
          0                 3           2             8    2     1       0.1045099809E-02       7    6    1         0.3438718282E-01      0.1355631254E+00
          0                 4           2             8    2     1       0.4697636717E-03       8    2    1         0.1219900128E-01      0.5615279294E-01
          0                 5           2             8    2     1       0.2111546355E-03       8    2    1         0.5483348610E-02      0.2483790553E-01
          0                 6           1             8    2     1       0.9491204731E-04       8    2    1         0.2464716467E-02      0.1109896389E-01
          0                 7           1             8    2     1       0.4266203692E-04       8    2    1         0.1107866939E-02      0.4967700618E-02
          0                 8           1             8    2     1       0.1917614738E-04       8    2    1         0.4979752573E-03      0.2224220963E-02
          0                 9           1             8    2     1       0.8619471840E-05       8    2    1         0.2238347183E-03      0.9960079505E-03

    ------------------------------------------------
       NWT REQUIRED            9 OUTER ITERATIONS 
       AND A TOTAL OF         14 INNER ITERATIONS.
    ------------------------------------------------

 NO OUTPUT CONTROL FOR STRESS PERIOD   23   TIME STEP    3
 
 SOLVING FOR HEAD 
                                                   Max.-Head-Change                         Max.-Flux-Residual
  Residual-Control   Outer-Iter.   Inner-Iter.     Column Row Layer    Maximum-Head-Change  Column Row Layer    Maximum-Flux-Residual          L2-NORM 
          0                 1           2             7    6     1       0.2238278899E-01       7    6    1         0.1205276897E+01      0.2418644879E+01
          0                 2           2             7    6     1       0.3698339063E-02       7    6    1         0.1988601765E+00      0.4398242059E+00
          0                 3           2             8    2     1       0.1044618418E-02       7    6    1         0.3288704541E-01      0.1351633988E+00
          0                 4           2             8    2     1       0.4695469162E-03       8    2    1         0.1219338044E-01      0.5610276615E-01
          0                 5           2             8    2     1       0.2110570380E-03       8    2    1         0.5480817721E-02      0.2482244088E-01
          0                 6           1             8    2     1       0.9486810242E-04       8    2    1         0.2463576890E-02      0.1109237221E-01
          0                 7           1             8    2     1       0.4264225039E-04       8    2    1         0.1107353831E-02      0.4964756421E-02
          0                 8           1             8    2     1       0.1916723830E-04       8    2    1         0.4977442252E-03      0.2222894805E-02
          0                 9           1             8    2     1       0.8615460183E-05       8    2    1         0.2237306951E-03      0.9954073854E-03

    ------------------------------------------------
       NWT REQUIRED            9 OUTER ITERATIONS 
       AND A TOTAL OF         14 INNER ITERATIONS.
    ------------------------------------------------

 NO OUTPUT CONTROL FOR STRESS PERIOD   23   TIME STEP    4
 
 SOLVING FOR HEAD 
                                                   Max.-Head-Change                         Max.-Flux-Residual
  Residual-Control   Outer-Iter.   Inner-Iter.     Column Row Layer    Maximum-Head-Change  Column Row Layer    Maximum-Flux-Residual          L2-NORM 
          0                 1           2             7    6     1       0.2138883071E-01       7    6    1         0.1150740132E+01      0.2364577606E+01
          0                 2           2             7    6     1       0.3539176716E-02       7    6    1         0.1901305691E+00      0.4349173519E+00
          0                 3           2             8    2     1       0.1044136692E-02       7    6    1         0.3148885726E-01      0.1347959040E+00
          0                 4           2             8    2     1       0.4693300032E-03       8    2    1         0.1218775565E-01      0.5605593177E-01
          0                 5           2             8    2     1       0.2109593667E-03       8    2    1         0.5478284980E-02      0.2480789364E-01
          0                 6           1             8    2     1       0.9482412377E-04       8    2    1         0.2462436457E-02      0.1108620154E-01
          0                 7           1             8    2     1       0.4262244810E-04       8    2    1         0.1106840324E-02      0.4961966667E-02
          0                 8           1             8    2     1       0.1915832209E-04       8    2    1         0.4975130088E-03      0.2221638907E-02
          0                 9           1             8    2     1       0.8611445901E-05       8    2    1         0.2236265851E-03      0.9948398643E-03

    ------------------------------------------------
       NWT REQUIRED            9 OUTER ITERATIONS 
       AND A TOTAL OF         14 INNER ITERATIONS.
    ------------------------------------------------

 NO OUTPUT CONTROL FOR STRESS PERIOD   23   TIME STEP    5
 
 SOLVING FOR HEAD 
                                                   Max.-Head-Change                         Max.-Flux-Residual
  Residual-Control   Outer-Iter.   Inner-Iter.     Column Row Layer    Maximum-Head-Change  Column Row Layer    Maximum-Flux-Residual          L2-NORM 
          0                 1           2             7    6     1       0.2046269331E-01       7    6    1         0.1099949838E+01      0.2314213544E+01
          0                 2           2             7    6     1       0.3390757435E-02       7    6    1         0.1819942776E+00      0.4303800337E+00
          0                 3           2             8    2     1       0.1043654720E-02       7    6    1         0.3018463438E-01      0.1344580293E+00
          0                 4           2             8    2     1       0.4691129921E-03       8    2    1         0.1218212805E-01      0.5601165879E-01
          0                 5           2             8    2     1       0.2108616567E-03       8    2    1         0.5475751118E-02      0.2479385398E-01
          0                 6           1             8    2     1       0.9478012961E-04       8    2    1         0.2461295580E-02      0.1108017540E-01
          0                 7           1             8    2     1       0.4260264030E-04       8    2    1         0.1106326650E-02      0.4959291676E-02
          0                 8           1             8    2     1       0.1914940363E-04       8    2    1         0.4972817288E-03      0.2220613894E-02
          0                 9           1             8    2     1       0.8607430243E-05       8    2    1         0.2235224545E-03      0.9948264895E-03

    ------------------------------------------------
       NWT REQUIRED            9 OUTER ITERATIONS 
       AND A TOTAL OF         14 INNER ITERATIONS.
    ------------------------------------------------

 NO OUTPUT CONTROL FOR STRESS PERIOD   23   TIME STEP    6
 
 SOLVING FOR HEAD 
                                                   Max.-Head-Change                         Max.-Flux-Residual
  Residual-Control   Outer-Iter.   Inner-Iter.     Column Row Layer    Maximum-Head-Change  Column Row Layer    Maximum-Flux-Residual          L2-NORM 
          0                 1           2             7    6     1       0.1959926690E-01       7    6    1         0.1052621970E+01      0.2268815759E+01
          0                 2           2             7    6     1       0.3252276014E-02       7    6    1         0.1744065820E+00      0.4264149233E+00
          0                 3           2             8    2     1       0.1043163228E-02       7    6    1         0.2896735900E-01      0.1341654762E+00
          0                 4           2             8    2     1       0.4688917041E-03       8    2    1         0.1217638934E-01      0.5597191847E-01
          0                 5           2             8    2     1       0.2107620254E-03       8    2    1         0.5473167341E-02      0.2478071067E-01
          0                 6           1             8    2     1       0.9473527295E-04       8    2    1         0.2460132279E-02      0.1107450708E-01
          0                 7           1             8    2     1       0.4258244446E-04       8    2    1         0.1105802897E-02      0.4956743625E-02
          0                 8           1             8    2     1       0.1914031122E-04       8    2    1         0.4970459229E-03      0.2219281616E-02
          0                 9           1             8    2     1       0.8603336801E-05       8    2    1         0.2234162893E-03      0.9937750476E-03

    ------------------------------------------------
       NWT REQUIRED            9 OUTER ITERATIONS 
       AND A TOTAL OF         14 INNER ITERATIONS.
    ------------------------------------------------

 NO OUTPUT CONTROL FOR STRESS PERIOD   23   TIME STEP    7
 
 SOLVING FOR HEAD 
                                                   Max.-Head-Change                         Max.-Flux-Residual
  Residual-Control   Outer-Iter.   Inner-Iter.     Column Row Layer    Maximum-Head-Change  Column Row Layer    Maximum-Flux-Residual          L2-NORM 
          0                 1           2             7    6     1       0.1879376372E-01       7    6    1         0.1008490561E+01      0.2226676472E+01
          0                 2           2             7    6     1       0.3122981483E-02       7    6    1         0.1673257615E+00      0.4227024995E+00
          0                 3           2             8    2     1       0.1042680709E-02       7    6    1         0.2783048732E-01      0.1338739535E+00
          0                 4           2             8    2     1       0.4686744444E-03       8    2    1         0.1217075534E-01      0.5592576326E-01
          0                 5           2             8    2     1       0.2106642026E-03       8    2    1         0.5470630572E-02      0.2476456959E-01
          0                 6           1             8    2     1       0.9469122839E-04       8    2    1         0.2458990086E-02      0.1106742483E-01
          0                 7           1             8    2     1       0.4256261353E-04       8    2    1         0.1105288621E-02      0.4953535728E-02
          0                 8           1             8    2     1       0.1913138225E-04       8    2    1         0.4968143708E-03      0.2217989317E-02
          0                 9           1             8    2     1       0.8599316641E-05       8    2    1         0.2233120368E-03      0.9936239153E-03

    ------------------------------------------------
       NWT REQUIRED            9 OUTER ITERATIONS 
       AND A TOTAL OF         14 INNER ITERATIONS.
    ------------------------------------------------

 NO OUTPUT CONTROL FOR STRESS PERIOD   23   TIME STEP    8
 
 SOLVING FOR HEAD 
                                                   Max.-Head-Change                         Max.-Flux-Residual
  Residual-Control   Outer-Iter.   Inner-Iter.     Column Row Layer    Maximum-Head-Change  Column Row Layer    Maximum-Flux-Residual          L2-NORM 
          0                 1           2             7    6     1       0.1804179639E-01       7    6    1         0.9673125311E+00      0.2188436095E+01
          0                 2           2             7    6     1       0.3002233177E-02       7    6    1         0.1607135195E+00      0.4194608527E+00
          0                 3           2             8    2     1       0.1042188688E-02       8    2    1         0.2706403228E-01      0.1336310064E+00
          0                 4           2             8    2     1       0.4684529212E-03       8    2    1         0.1216501047E-01      0.5588905542E-01
          0                 5           2             8    2     1       0.2105644673E-03       8    2    1         0.5468044057E-02      0.2475185176E-01
          0                 6           1             8    2     1       0.9464632496E-04       8    2    1         0.2457825569E-02      0.1106187543E-01
          0                 7           1             8    2     1       0.4254239756E-04       8    2    1         0.1104764336E-02      0.4951034875E-02
          0                 8           1             8    2     1       0.1912228109E-04       8    2    1         0.4965783313E-03      0.2216692325E-02
          0                 9           1             8    2     1       0.8595219197E-05       8    2    1         0.2232057669E-03      0.9926047994E-03

    ------------------------------------------------
       NWT REQUIRED            9 OUTER ITERATIONS 
       AND A TOTAL OF         14 INNER ITERATIONS.
    ------------------------------------------------

 NO OUTPUT CONTROL FOR STRESS PERIOD   23   TIME STEP    9
 
 SOLVING FOR HEAD 
                                                   Max.-Head-Change                         Max.-Flux-Residual
  Residual-Control   Outer-Iter.   Inner-Iter.     Column Row Layer    Maximum-Head-Change  Column Row Layer    Maximum-Flux-Residual          L2-NORM 
          0                 1           2             7    6     1       0.1733965194E-01       7    6    1         0.9288749051E+00      0.2153428455E+01
          0                 2           2             7    6     1       0.2889347163E-02       7    6    1         0.1545381725E+00      0.4165261195E+00
          0                 3           2             8    2     1       0.1041705684E-02       8    2    1         0.2705150669E-01      0.1334157167E+00
          0                 4           2             8    2     1       0.4682354512E-03       8    2    1         0.1215937084E-01      0.5585705801E-01
          0                 5           2             8    2     1       0.2104665540E-03       8    2    1         0.5465504853E-02      0.2474071639E-01
          0                 6           1             8    2     1       0.9460224151E-04       8    2    1         0.2456682325E-02      0.1105699315E-01
          0                 7           1             8    2     1       0.4252254962E-04       8    2    1         0.1104249608E-02      0.4948879568E-02
          0                 8           1             8    2     1       0.1911334487E-04       8    2    1         0.4963465886E-03      0.2215843602E-02
          0                 9           1             8    2     1       0.8591196411E-05       8    2    1         0.2231014368E-03      0.9925108781E-03

    ------------------------------------------------
       NWT REQUIRED            9 OUTER ITERATIONS 
       AND A TOTAL OF         14 INNER ITERATIONS.
    ------------------------------------------------

 NO OUTPUT CONTROL FOR STRESS PERIOD   23   TIME STEP   10
 
 SOLVING FOR HEAD 
                                                   Max.-Head-Change                         Max.-Flux-Residual
  Residual-Control   Outer-Iter.   Inner-Iter.     Column Row Layer    Maximum-Head-Change  Column Row Layer    Maximum-Flux-Residual          L2-NORM 
          0                 1           2             7    6     1       0.1668328735E-01       7    6    1         0.8929626753E+00      0.2121306719E+01
          0                 2           2             7    6     1       0.2783758117E-02       7    6    1         0.1487635307E+00      0.4138705663E+00
          0                 3           2             8    2     1       0.1041213236E-02       8    2    1         0.2703873528E-01      0.1332194626E+00
          0                 4           2             8    2     1       0.4680137489E-03       8    2    1         0.1215362104E-01      0.5582696036E-01
          0                 5           2             8    2     1       0.2103667441E-03       8    2    1         0.5462916277E-02      0.2473009838E-01
          0                 6           1             8    2     1       0.9455730781E-04       8    2    1         0.2455516954E-02      0.1105237982E-01
          0                 7           1             8    2     1       0.4250232114E-04       8    2    1         0.1103724967E-02      0.4946888636E-02
          0                 8           1             8    2     1       0.1910423883E-04       8    2    1         0.4961104008E-03      0.2214701582E-02
          0                 9           1             8    2     1       0.8587096341E-05       8    2    1         0.2229951007E-03      0.9916945515E-03

    ------------------------------------------------
       NWT REQUIRED            9 OUTER ITERATIONS 
       AND A TOTAL OF         14 INNER ITERATIONS.
    ------------------------------------------------

 NO OUTPUT CONTROL FOR STRESS PERIOD   23   TIME STEP   11
 
 SOLVING FOR HEAD 
                                                   Max.-Head-Change                         Max.-Flux-Residual
  Residual-Control   Outer-Iter.   Inner-Iter.     Column Row Layer    Maximum-Head-Change  Column Row Layer    Maximum-Flux-Residual          L2-NORM 
          0                 1           2             7    6     1       0.1606970115E-01       7    6    1         0.8594073803E+00      0.2091702239E+01
          0                 2           2             7    6     1       0.2684971794E-02       7    6    1         0.1433636116E+00      0.4114506758E+00
          0                 3           2             8    2     1       0.1040720585E-02       8    2    1         0.2702595862E-01      0.1330393431E+00
          0                 4           2             8    2     1       0.4677919556E-03       8    2    1         0.1214786887E-01      0.5579831538E-01
          0                 5           2             8    2     1       0.2102668930E-03       8    2    1         0.5460326630E-02      0.2471981941E-01
          0                 6           1             8    2     1       0.9451235548E-04       8    2    1         0.2454351103E-02      0.1104772828E-01
          0                 7           1             8    2     1       0.4248208441E-04       8    2    1         0.1103200111E-02      0.4944593787E-02
          0                 8           1             8    2     1       0.1909512828E-04       8    2    1         0.4958741168E-03      0.2213752323E-02
          0                 9           1             8    2     1       0.8582995395E-05       8    2    1         0.2228887341E-03      0.9912625658E-03

    ------------------------------------------------
       NWT REQUIRED            9 OUTER ITERATIONS 
       AND A TOTAL OF         14 INNER ITERATIONS.
    ------------------------------------------------

 NO OUTPUT CONTROL FOR STRESS PERIOD   23   TIME STEP   12
 
 SOLVING FOR HEAD 
                                                   Max.-Head-Change                         Max.-Flux-Residual
  Residual-Control   Outer-Iter.   Inner-Iter.     Column Row Layer    Maximum-Head-Change  Column Row Layer    Maximum-Flux-Residual          L2-NORM 
          0                 1           2             3   13     1       0.1556969479E-01       7    6    1         0.8280169930E+00      0.2063920048E+01
          0                 2           2             7    6     1       0.2592439341E-02       7    6    1         0.1383080683E+00      0.4091415648E+00
          0                 3           2             8    2     1       0.1040236916E-02       8    2    1         0.2701341580E-01      0.1328634313E+00
          0                 4           2             8    2     1       0.4675741869E-03       8    2    1         0.1214222149E-01      0.5576988203E-01
          0                 5           2             8    2     1       0.2101688454E-03       8    2    1         0.5457783939E-02      0.2470942713E-01
          0                 6           1             8    2     1       0.9446821175E-04       8    2    1         0.2453206295E-02      0.1104308725E-01
          0                 7           1             8    2     1       0.4246220933E-04       8    2    1         0.1102684686E-02      0.4942465602E-02
          0                 8           1             8    2     1       0.1908618056E-04       8    2    1         0.4956420678E-03      0.2212775600E-02
          0                 9           1             8    2     1       0.8578967106E-05       8    2    1         0.2227842635E-03      0.9908146008E-03

    ------------------------------------------------
       NWT REQUIRED            9 OUTER ITERATIONS 
       AND A TOTAL OF         14 INNER ITERATIONS.
    ------------------------------------------------

 NO OUTPUT CONTROL FOR STRESS PERIOD   23   TIME STEP   13
 
 SOLVING FOR HEAD 
                                                   Max.-Head-Change                         Max.-Flux-Residual
  Residual-Control   Outer-Iter.   Inner-Iter.     Column Row Layer    Maximum-Head-Change  Column Row Layer    Maximum-Flux-Residual          L2-NORM 
          0                 1           2             3   13     1       0.1522758541E-01       3   13    1         0.8094753527E+00      0.2038677763E+01
          0                 2           2             7    6     1       0.2505732983E-02       7    6    1         0.1335731532E+00      0.4070714640E+00
          0                 3           2             8    2     1       0.1039743889E-02       8    2    1         0.2700062868E-01      0.1326883308E+00
          0                 4           2             8    2     1       0.4673522391E-03       8    2    1         0.1213646500E-01      0.5573477627E-01
          0                 5           2             8    2     1       0.2100689318E-03       8    2    1         0.5455192525E-02      0.2469579749E-01
          0                 6           1             8    2     1       0.9442323441E-04       8    2    1         0.2452039725E-02      0.1103695805E-01
          0                 7           1             8    2     1       0.4244196272E-04       8    2    1         0.1102159543E-02      0.4939659787E-02
          0                 8           1             8    2     1       0.1907706639E-04       8    2    1         0.4954056713E-03      0.2211490490E-02
          0                 9           1             8    2     1       0.8574864410E-05       8    2    1         0.2226778513E-03      0.9905145447E-03

    ------------------------------------------------
       NWT REQUIRED            9 OUTER ITERATIONS 
       AND A TOTAL OF         14 INNER ITERATIONS.
    ------------------------------------------------

 NO OUTPUT CONTROL FOR STRESS PERIOD   23   TIME STEP   14
 
 SOLVING FOR HEAD 
                                                   Max.-Head-Change                         Max.-Flux-Residual
  Residual-Control   Outer-Iter.   Inner-Iter.     Column Row Layer    Maximum-Head-Change  Column Row Layer    Maximum-Flux-Residual          L2-NORM 
          0                 1           2             3   13     1       0.1489475107E-01       3   13    1         0.7917111694E+00      0.2015360029E+01
          0                 2           2             7    6     1       0.2424420324E-02       7    6    1         0.1291349755E+00      0.4051561631E+00
          0                 3           2             8    2     1       0.1039250658E-02       8    2    1         0.2698783666E-01      0.1325053583E+00
          0                 4           2             8    2     1       0.4671301910E-03       8    2    1         0.1213070608E-01      0.5568903142E-01
          0                 5           2             8    2     1       0.2099689692E-03       8    2    1         0.5452599919E-02      0.2467689885E-01
          0                 6           1             8    2     1       0.9437823343E-04       8    2    1         0.2450872581E-02      0.1102849708E-01
          0                 7           1             8    2     1       0.4242170485E-04       8    2    1         0.1101634125E-02      0.4935891559E-02
          0                 8           1             8    2     1       0.1906794721E-04       8    2    1         0.4951691435E-03      0.2209895329E-02
          0                 9           1             8    2     1       0.8570759212E-05       8    2    1         0.2225713734E-03      0.9894456373E-03

    ------------------------------------------------
       NWT REQUIRED            9 OUTER ITERATIONS 
       AND A TOTAL OF         14 INNER ITERATIONS.
    ------------------------------------------------

 NO OUTPUT CONTROL FOR STRESS PERIOD   23   TIME STEP   15
 
 SOLVING FOR HEAD 
                                                   Max.-Head-Change                         Max.-Flux-Residual
  Residual-Control   Outer-Iter.   Inner-Iter.     Column Row Layer    Maximum-Head-Change  Column Row Layer    Maximum-Flux-Residual          L2-NORM 
          0                 1           2             3   13     1       0.1457090698E-01       3   13    1         0.7744330046E+00      0.1994007888E+01
          0                 2           2             7    6     1       0.2348142357E-02       7    6    1         0.1249736421E+00      0.4034197736E+00
          0                 3           2             8    2     1       0.1038757278E-02       8    2    1         0.2697504055E-01      0.1323377687E+00
          0                 4           2             8    2     1       0.4669080814E-03       8    2    1         0.1212494545E-01      0.5564743586E-01
          0                 5           2             8    2     1       0.2098689818E-03       8    2    1         0.5450006613E-02      0.2465987275E-01
          0                 6           1             8    2     1       0.9433322257E-04       8    2    1         0.2449705147E-02      0.1102087180E-01
          0                 7           1             8    2     1       0.4240144273E-04       8    2    1         0.1101108586E-02      0.4932458869E-02
          0                 8           1             8    2     1       0.1905882591E-04       8    2    1         0.4949325664E-03      0.2208340132E-02
          0                 9           1             8    2     1       0.8566653639E-05       8    2    1         0.2224648799E-03      0.9887484642E-03

    ------------------------------------------------
       NWT REQUIRED            9 OUTER ITERATIONS 
       AND A TOTAL OF         14 INNER ITERATIONS.
    ------------------------------------------------

 NO OUTPUT CONTROL FOR STRESS PERIOD   23   TIME STEP   16
 
 SOLVING FOR HEAD 
                                                   Max.-Head-Change                         Max.-Flux-Residual
  Residual-Control   Outer-Iter.   Inner-Iter.     Column Row Layer    Maximum-Head-Change  Column Row Layer    Maximum-Flux-Residual          L2-NORM 
          0                 1           2             3   13     1       0.1425538321E-01       3   13    1         0.7576070377E+00      0.1974225568E+01
          0                 2           2             8    2     1       0.2309884471E-02       7    6    1         0.1210678249E+00      0.4018232152E+00
          0                 3           2             8    2     1       0.1038263771E-02       8    2    1         0.2696224086E-01      0.1321847528E+00
          0                 4           2             8    2     1       0.4666859206E-03       8    2    1         0.1211918337E-01      0.5561053325E-01
          0                 5           2             8    2     1       0.2097689738E-03       8    2    1         0.5447412720E-02      0.2464529473E-01
          0                 6           1             8    2     1       0.9428820371E-04       8    2    1         0.2448537484E-02      0.1101455535E-01
          0                 7           1             8    2     1       0.4238117773E-04       8    2    1         0.1100582960E-02      0.4929616003E-02
          0                 8           1             8    2     1       0.1904970399E-04       8    2    1         0.4946959587E-03      0.2206984577E-02
          0                 9           1             8    2     1       0.8562547316E-05       8    2    1         0.2223583724E-03      0.9882061005E-03

    ------------------------------------------------
       NWT REQUIRED            9 OUTER ITERATIONS 
       AND A TOTAL OF         14 INNER ITERATIONS.
    ------------------------------------------------

 NO OUTPUT CONTROL FOR STRESS PERIOD   23   TIME STEP   17
 
 SOLVING FOR HEAD 
                                                   Max.-Head-Change                         Max.-Flux-Residual
  Residual-Control   Outer-Iter.   Inner-Iter.     Column Row Layer    Maximum-Head-Change  Column Row Layer    Maximum-Flux-Residual          L2-NORM 
          0                 1           2             3   13     1       0.1394832005E-01       3   13    1         0.7412085482E+00      0.1955617511E+01
          0                 2           2             8    2     1       0.2308767402E-02       7    6    1         0.1174025527E+00      0.4003173348E+00
          0                 3           2             8    2     1       0.1037760939E-02       8    2    1         0.2694919836E-01      0.1320624316E+00
          0                 4           2             8    2     1       0.4664595825E-03       8    2    1         0.1211331251E-01      0.5558733983E-01
          0                 5           2             8    2     1       0.2096670946E-03       8    2    1         0.5444770094E-02      0.2463647782E-01
          0                 6           1             8    2     1       0.9424234647E-04       8    2    1         0.2447347988E-02      0.1101059382E-01
          0                 7           1             8    2     1       0.4236053719E-04       8    2    1         0.1100047556E-02      0.4927796336E-02
          0                 8           1             8    2     1       0.1904041349E-04       8    2    1         0.4944549703E-03      0.2206148138E-02
          0                 9           1             8    2     1       0.8558365835E-05       8    2    1         0.2222499070E-03      0.9878249821E-03

    ------------------------------------------------
       NWT REQUIRED            9 OUTER ITERATIONS 
       AND A TOTAL OF         14 INNER ITERATIONS.
    ------------------------------------------------

 NO OUTPUT CONTROL FOR STRESS PERIOD   23   TIME STEP   18
 
 SOLVING FOR HEAD 
                                                   Max.-Head-Change                         Max.-Flux-Residual
  Residual-Control   Outer-Iter.   Inner-Iter.     Column Row Layer    Maximum-Head-Change  Column Row Layer    Maximum-Flux-Residual          L2-NORM 
          0                 1           2             3   13     1       0.1364962192E-01       3   13    1         0.7252669805E+00      0.1938401067E+01
          0                 2           2             8    2     1       0.2307670766E-02       7    6    1         0.1139580061E+00      0.3989493912E+00
          0                 3           2             8    2     1       0.1037267288E-02       8    2    1         0.2693639437E-01      0.1319408116E+00
          0                 4           2             8    2     1       0.4662373682E-03       8    2    1         0.1210754880E-01      0.5556059878E-01
          0                 5           2             8    2     1       0.2095670678E-03       8    2    1         0.5442175604E-02      0.2462577232E-01
          0                 6           1             8    2     1       0.9419732173E-04       8    2    1         0.2446180121E-02      0.1100580415E-01
          0                 7           1             8    2     1       0.4234027057E-04       8    2    1         0.1099521868E-02      0.4925610314E-02
          0                 8           1             8    2     1       0.1903129131E-04       8    2    1         0.4942183488E-03      0.2205259887E-02
          0                 9           1             8    2     1       0.8554259887E-05       8    2    1         0.2221433995E-03      0.9876242454E-03

    ------------------------------------------------
       NWT REQUIRED            9 OUTER ITERATIONS 
       AND A TOTAL OF         14 INNER ITERATIONS.
    ------------------------------------------------

 NO OUTPUT CONTROL FOR STRESS PERIOD   23   TIME STEP   19
 
 SOLVING FOR HEAD 
                                                   Max.-Head-Change                         Max.-Flux-Residual
  Residual-Control   Outer-Iter.   Inner-Iter.     Column Row Layer    Maximum-Head-Change  Column Row Layer    Maximum-Flux-Residual          L2-NORM 
          0                 1           2             3   13     1       0.1335975420E-01       3   13    1         0.7097813354E+00      0.1922776719E+01
          0                 2           2             8    2     1       0.2306573960E-02       7    6    1         0.1107206179E+00      0.3977492227E+00
          0                 3           2             8    2     1       0.1036773573E-02       8    2    1         0.2692358844E-01      0.1318378879E+00
          0                 4           2             8    2     1       0.4660151316E-03       8    2    1         0.1210178437E-01      0.5553673471E-01
          0                 5           2             8    2     1       0.2094670335E-03       8    2    1         0.5439580855E-02      0.2461585609E-01
          0                 6           1             8    2     1       0.9415229449E-04       8    2    1         0.2445012164E-02      0.1100123262E-01
          0                 7           1             8    2     1       0.4232000345E-04       8    2    1         0.1098996153E-02      0.4923530283E-02
          0                 8           1             8    2     1       0.1902216926E-04       8    2    1         0.4939817216E-03      0.2204165026E-02
          0                 9           1             8    2     1       0.8550153939E-05       8    2    1         0.2220368917E-03      0.9869134566E-03

    ------------------------------------------------
       NWT REQUIRED            9 OUTER ITERATIONS 
       AND A TOTAL OF         14 INNER ITERATIONS.
    ------------------------------------------------

 NO OUTPUT CONTROL FOR STRESS PERIOD   23   TIME STEP   20
 
 SOLVING FOR HEAD 
                                                   Max.-Head-Change                         Max.-Flux-Residual
  Residual-Control   Outer-Iter.   Inner-Iter.     Column Row Layer    Maximum-Head-Change  Column Row Layer    Maximum-Flux-Residual          L2-NORM 
          0                 1           2             3   13     1       0.1307723812E-01       3   13    1         0.6946852539E+00      0.1908257156E+01
          0                 2           2             8    2     1       0.2305456395E-02       7    6    1         0.1076756498E+00      0.3965841228E+00
          0                 3           2             8    2     1       0.1036270538E-02       8    2    1         0.2691054026E-01      0.1317086651E+00
          0                 4           2             8    2     1       0.4657887118E-03       8    2    1         0.1209591119E-01      0.5549779032E-01
          0                 5           2             8    2     1       0.2093651221E-03       8    2    1         0.5436937299E-02      0.2459820275E-01
          0                 6           1             8    2     1       0.9410642500E-04       8    2    1         0.2443822299E-02      0.1099282608E-01
          0                 7           1             8    2     1       0.4229935815E-04       8    2    1         0.1098460602E-02      0.4919543761E-02
          0                 8           1             8    2     1       0.1901287714E-04       8    2    1         0.4937406769E-03      0.2202390302E-02
          0                 9           1             8    2     1       0.8545971957E-05       8    2    1         0.2219284032E-03      0.9860315341E-03

    ------------------------------------------------
       NWT REQUIRED            9 OUTER ITERATIONS 
       AND A TOTAL OF         14 INNER ITERATIONS.
    ------------------------------------------------

 NO OUTPUT CONTROL FOR STRESS PERIOD   23   TIME STEP   21
 
 SOLVING FOR HEAD 
                                                   Max.-Head-Change                         Max.-Flux-Residual
  Residual-Control   Outer-Iter.   Inner-Iter.     Column Row Layer    Maximum-Head-Change  Column Row Layer    Maximum-Flux-Residual          L2-NORM 
          0                 1           2             3   13     1       0.1280314872E-01       3   13    1         0.6800383311E+00      0.1894640402E+01
          0                 2           2             8    2     1       0.2304359428E-02       7    6    1         0.1048093947E+00      0.3953484908E+00
          0                 3           2             8    2     1       0.1035776779E-02       8    2    1         0.2689773259E-01      0.1314901693E+00
          0                 4           2             8    2     1       0.4655664675E-03       8    2    1         0.1209014630E-01      0.5541507779E-01
          0                 5           2             8    2     1       0.2092650902E-03       8    2    1         0.5434342495E-02      0.2456161930E-01
          0                 6           1             8    2     1       0.9406140176E-04       8    2    1         0.2442654388E-02      0.1097635801E-01
          0                 7           1             8    2     1       0.4227909391E-04       8    2    1         0.1097934937E-02      0.4912071267E-02
          0                 8           1             8    2     1       0.1900375671E-04       8    2    1         0.4935040845E-03      0.2198945953E-02
          0                 9           1             8    2     1       0.8541867010E-05       8    2    1         0.2218219183E-03      0.9845316870E-03

    ------------------------------------------------
       NWT REQUIRED            9 OUTER ITERATIONS 
       AND A TOTAL OF         14 INNER ITERATIONS.
    ------------------------------------------------

 NO OUTPUT CONTROL FOR STRESS PERIOD   23   TIME STEP   22
 
 SOLVING FOR HEAD 
                                                   Max.-Head-Change                         Max.-Flux-Residual
  Residual-Control   Outer-Iter.   Inner-Iter.     Column Row Layer    Maximum-Head-Change  Column Row Layer    Maximum-Flux-Residual          L2-NORM 
          0                 1           2             3   13     1       0.1253687757E-01       3   13    1         0.6658078031E+00      0.1882149605E+01
          0                 2           2             8    2     1       0.2303241753E-02       7    6    1         0.1021102997E+00      0.3943854013E+00
          0                 3           2             8    2     1       0.1035273712E-02       8    2    1         0.2688468320E-01      0.1314023558E+00
          0                 4           2             8    2     1       0.4653400407E-03       8    2    1         0.1208427278E-01      0.5539384855E-01
          0                 5           2             8    2     1       0.2091631792E-03       8    2    1         0.5431698876E-02      0.2455276288E-01
          0                 6           1             8    2     1       0.9401553378E-04       8    2    1         0.2441464537E-02      0.1097233630E-01
          0                 7           1             8    2     1       0.4225845024E-04       8    2    1         0.1097399414E-02      0.4910242373E-02
          0                 8           1             8    2     1       0.1899446559E-04       8    2    1         0.4932630623E-03      0.2198216148E-02
          0                 9           1             8    2     1       0.8537685528E-05       8    2    1         0.2217134468E-03      0.9841511550E-03

    ------------------------------------------------
       NWT REQUIRED            9 OUTER ITERATIONS 
       AND A TOTAL OF         14 INNER ITERATIONS.
    ------------------------------------------------

 NO OUTPUT CONTROL FOR STRESS PERIOD   23   TIME STEP   23
 
 SOLVING FOR HEAD 
                                                   Max.-Head-Change                         Max.-Flux-Residual
  Residual-Control   Outer-Iter.   Inner-Iter.     Column Row Layer    Maximum-Head-Change  Column Row Layer    Maximum-Flux-Residual          L2-NORM 
          0                 1           2             3   13     1       0.1227811323E-01       3   13    1         0.6519772589E+00      0.1870313515E+01
          0                 2           2             8    2     1       0.2302144707E-02       7    6    1         0.9956562447E-01      0.3933993240E+00
          0                 3           2             8    2     1       0.1034779925E-02       8    2    1         0.2687187464E-01      0.1312755151E+00
          0                 4           2             8    2     1       0.4651177882E-03       8    2    1         0.1207850759E-01      0.5535393918E-01
          0                 5           2             8    2     1       0.2090631457E-03       8    2    1         0.5429103985E-02      0.2453598963E-01
          0                 6           1             8    2     1       0.9397051029E-04       8    2    1         0.2440296607E-02      0.1096502343E-01
          0                 7           1             8    2     1       0.4223818637E-04       8    2    1         0.1096873755E-02      0.4907044945E-02
          0                 8           1             8    2     1       0.1898534579E-04       8    2    1         0.4930264811E-03      0.2196720816E-02
          0                 9           1             8    2     1       0.8533581206E-05       8    2    1         0.2216069684E-03      0.9835474598E-03

    ------------------------------------------------
       NWT REQUIRED            9 OUTER ITERATIONS 
       AND A TOTAL OF         14 INNER ITERATIONS.
    ------------------------------------------------

 NO OUTPUT CONTROL FOR STRESS PERIOD   23   TIME STEP   24
 
 SOLVING FOR HEAD 
                                                   Max.-Head-Change                         Max.-Flux-Residual
  Residual-Control   Outer-Iter.   Inner-Iter.     Column Row Layer    Maximum-Head-Change  Column Row Layer    Maximum-Flux-Residual          L2-NORM 
          0                 1           2             3   13     1       0.1202725789E-01       3   13    1         0.6385693045E+00      0.1859108828E+01
          0                 2           2             8    2     1       0.2301027142E-02       7    6    1         0.9716674246E-01      0.3924046824E+00
          0                 3           2             8    2     1       0.1034276957E-02       8    2    1         0.2685882677E-01      0.1311298304E+00
          0                 4           2             8    2     1       0.4648914283E-03       8    2    1         0.1207263532E-01      0.5531088612E-01
          0                 5           2             8    2     1       0.2089612742E-03       8    2    1         0.5426461184E-02      0.2451979620E-01
          0                 6           1             8    2     1       0.9392466506E-04       8    2    1         0.2439107243E-02      0.1095855900E-01
          0                 7           1             8    2     1       0.4221755459E-04       8    2    1         0.1096338500E-02      0.4904406770E-02
          0                 8           1             8    2     1       0.1897606104E-04       8    2    1         0.4927856039E-03      0.2195617236E-02
          0                 9           1             8    2     1       0.8529403101E-05       8    2    1         0.2214985722E-03      0.9830789830E-03

    ------------------------------------------------
       NWT REQUIRED            9 OUTER ITERATIONS 
       AND A TOTAL OF         14 INNER ITERATIONS.
    ------------------------------------------------

 NO OUTPUT CONTROL FOR STRESS PERIOD   23   TIME STEP   25
 
 SOLVING FOR HEAD 
                                                   Max.-Head-Change                         Max.-Flux-Residual
  Residual-Control   Outer-Iter.   Inner-Iter.     Column Row Layer    Maximum-Head-Change  Column Row Layer    Maximum-Flux-Residual          L2-NORM 
          0                 1           2             3   13     1       0.1178278913E-01       3   13    1         0.6255008271E+00      0.1862126474E+01
          0                 2           2             7    6     1       0.2551915676E-02       7    6    1         0.1361613311E+00      0.4036868993E+00
          0                 3           2             8    2     1       0.1033774067E-02       7    6    1         0.3055682908E-01      0.1336436157E+00
          0                 4           2             8    2     1       0.4646651052E-03       8    2    1         0.1206676397E-01      0.5564778586E-01
          0                 5           2             8    2     1       0.2088594208E-03       8    2    1         0.5423818828E-02      0.2455282941E-01
          0                 6           1             8    2     1       0.9387882796E-04       8    2    1         0.2437918091E-02      0.1095859794E-01
          0                 7           1             8    2     1       0.4219692730E-04       8    2    1         0.1095803352E-02      0.4902651835E-02
          0                 8           1             8    2     1       0.1896677830E-04       8    2    1         0.4925447735E-03      0.2194700259E-02
          0                 9           1             8    2     1       0.8525225747E-05       8    2    1         0.2213901958E-03      0.9825949651E-03

    ------------------------------------------------
       NWT REQUIRED            9 OUTER ITERATIONS 
       AND A TOTAL OF         14 INNER ITERATIONS.
    ------------------------------------------------

 NO OUTPUT CONTROL FOR STRESS PERIOD   23   TIME STEP   26
 
 SOLVING FOR HEAD 
                                                   Max.-Head-Change                         Max.-Flux-Residual
  Residual-Control   Outer-Iter.   Inner-Iter.     Column Row Layer    Maximum-Head-Change  Column Row Layer    Maximum-Flux-Residual          L2-NORM 
          0                 1           2             7    6     1       0.1541162316E-01       7    6    1         0.8237475800E+00      0.1941036332E+01
          0                 2           2             7    6     1       0.3436535318E-02       7    6    1         0.1843956449E+00      0.4228083815E+00
          0                 3           2             8    2     1       0.1033280488E-02       7    6    1         0.4104591156E-01      0.1365136071E+00
          0                 4           2             8    2     1       0.4644429616E-03       8    2    1         0.1206100128E-01      0.5597358516E-01
          0                 5           2             8    2     1       0.2087594426E-03       8    2    1         0.5421225233E-02      0.2458312525E-01
          0                 6           1             8    2     1       0.9383383273E-04       8    2    1         0.2436750826E-02      0.1095938261E-01
          0                 7           1             8    2     1       0.4217667769E-04       8    2    1         0.1095278028E-02      0.4901595326E-02
          0                 8           1             8    2     1       0.1895766538E-04       8    2    1         0.4923083566E-03      0.2193970662E-02
          0                 9           1             8    2     1       0.8521124551E-05       8    2    1         0.2212837988E-03      0.9822827583E-03

    ------------------------------------------------
       NWT REQUIRED            9 OUTER ITERATIONS 
       AND A TOTAL OF         14 INNER ITERATIONS.
    ------------------------------------------------

 NO OUTPUT CONTROL FOR STRESS PERIOD   23   TIME STEP   27
 
 SOLVING FOR HEAD 
                                                   Max.-Head-Change                         Max.-Flux-Residual
  Residual-Control   Outer-Iter.   Inner-Iter.     Column Row Layer    Maximum-Head-Change  Column Row Layer    Maximum-Flux-Residual          L2-NORM 
          0                 1           2             7    6     1       0.1480660194E-01       7    6    1         0.7905603905E+00      0.1925824822E+01
          0                 2           2             7    6     1       0.3305884022E-02       7    6    1         0.1772416673E+00      0.4200314179E+00
          0                 3           2             8    2     1       0.1032777696E-02       7    6    1         0.3949977286E-01      0.1360788455E+00
          0                 4           2             8    2     1       0.4642166825E-03       8    2    1         0.1205513107E-01      0.5591034277E-01
          0                 5           2             8    2     1       0.2086576089E-03       8    2    1         0.5418583385E-02      0.2457099619E-01
          0                 6           1             8    2     1       0.9378800451E-04       8    2    1         0.2435561901E-02      0.1095565618E-01
          0                 7           1             8    2     1       0.4215605378E-04       8    2    1         0.1094742980E-02      0.4900056136E-02
          0                 8           1             8    2     1       0.1894838450E-04       8    2    1         0.4920675784E-03      0.2193272402E-02
          0                 9           1             8    2     1       0.8516948322E-05       8    2    1         0.2211754473E-03      0.9819595900E-03

    ------------------------------------------------
       NWT REQUIRED            9 OUTER ITERATIONS 
       AND A TOTAL OF         14 INNER ITERATIONS.
    ------------------------------------------------

 NO OUTPUT CONTROL FOR STRESS PERIOD   23   TIME STEP   28
 
 SOLVING FOR HEAD 
                                                   Max.-Head-Change                         Max.-Flux-Residual
  Residual-Control   Outer-Iter.   Inner-Iter.     Column Row Layer    Maximum-Head-Change  Column Row Layer    Maximum-Flux-Residual          L2-NORM 
          0                 1           2             7    6     1       0.1424544878E-01       7    6    1         0.7597982845E+00      0.1912125904E+01
          0                 2           2             7    6     1       0.3200588181E-02       7    6    1         0.1713069061E+00      0.4177264921E+00
          0                 3           2             8    2     1       0.1032275102E-02       7    6    1         0.3827060023E-01      0.1357272939E+00
          0                 4           2             8    2     1       0.4639905131E-03       8    2    1         0.1204926328E-01      0.5585788377E-01
          0                 5           2             8    2     1       0.2085558338E-03       8    2    1         0.5415942867E-02      0.2455969849E-01
          0                 6           1             8    2     1       0.9374220717E-04       8    2    1         0.2434373680E-02      0.1095176970E-01
          0                 7           1             8    2     1       0.4213544576E-04       8    2    1         0.1094208293E-02      0.4898416319E-02
          0                 8           1             8    2     1       0.1893911139E-04       8    2    1         0.4918269796E-03      0.2192512124E-02
          0                 9           1             8    2     1       0.8512775719E-05       8    2    1         0.2210671840E-03      0.9816100201E-03

    ------------------------------------------------
       NWT REQUIRED            9 OUTER ITERATIONS 
       AND A TOTAL OF         14 INNER ITERATIONS.
    ------------------------------------------------

 NO OUTPUT CONTROL FOR STRESS PERIOD   23   TIME STEP   29
 
 SOLVING FOR HEAD 
                                                   Max.-Head-Change                         Max.-Flux-Residual
  Residual-Control   Outer-Iter.   Inner-Iter.     Column Row Layer    Maximum-Head-Change  Column Row Layer    Maximum-Flux-Residual          L2-NORM 
          0                 1           2             7    6     1       0.1375169052E-01       7    6    1         0.7321279226E+00      0.1901117449E+01
          0                 2           2             7    6     1       0.3082015550E-02       7    6    1         0.1648246862E+00      0.4155182928E+00
          0                 3           2             8    2     1       0.1031772664E-02       7    6    1         0.3686636489E-01      0.1353607870E+00
          0                 4           2             8    2     1       0.4637644157E-03       8    2    1         0.1204339731E-01      0.5580166434E-01
          0                 5           2             8    2     1       0.2084540916E-03       8    2    1         0.5413303187E-02      0.2454813230E-01
          0                 6           1             8    2     1       0.9369642460E-04       8    2    1         0.2433185849E-02      0.1094807625E-01
          0                 7           1             8    2     1       0.4211484498E-04       8    2    1         0.1093673792E-02      0.4896864707E-02
          0                 8           1             8    2     1       0.1892984177E-04       8    2    1         0.4915864665E-03      0.2191831616E-02
          0                 9           1             8    2     1       0.8508604617E-05       8    2    1         0.2209589603E-03      0.9812998877E-03

    ------------------------------------------------
       NWT REQUIRED            9 OUTER ITERATIONS 
       AND A TOTAL OF         14 INNER ITERATIONS.
    ------------------------------------------------

 NO OUTPUT CONTROL FOR STRESS PERIOD   23   TIME STEP   30



 STREAM LISTING     PERIOD     23   STEP       30

 LAYER ROW COL. STREAM  RCH.  FLOW INTO     FLOW TO   FLOW OUT OF   OVRLND.     DIRECT     STREAM       STREAM     STREAM     STREAM   STREAMBED  STREAMBED
                SEG.NO.  NO.  STRM. RCH.    AQUIFER    STRM. RCH.    RUNOFF     PRECIP       ET          HEAD       DEPTH      WIDTH   CONDCTNC.   GRADIENT

   1    1    1     1     1    3.3507E+00  8.1811E-10   3.3507E+00  0.000E+00  0.000E+00  0.000E+00  1.09370E+03  6.554E-01  4.974E+00  2.238E-10  1.218E+00
   1    2    2     1     2    3.3507E+00  1.2692E-09   3.3507E+00  0.000E+00  0.000E+00  0.000E+00  1.08871E+03  6.538E-01  4.962E+00  3.474E-10  1.218E+00
   1    3    3     1     3    3.3507E+00  1.0890E-09   3.3507E+00  0.000E+00  0.000E+00  0.000E+00  1.08307E+03  6.544E-01  4.967E+00  2.980E-10  1.218E+00
   1    3    4     1     4    3.3507E+00  1.0078E-09   3.3507E+00  0.000E+00  0.000E+00  0.000E+00  1.07806E+03  6.547E-01  4.969E+00  2.758E-10  1.218E+00
   1    4    5     2     1    1.3507E+00  2.4943E-01   1.1013E+00  0.000E+00  0.000E+00  0.000E+00  1.07213E+03  1.978E-01  1.200E+01  7.800E-02  1.066E+00
   1    5    6     2     2    1.1013E+00  1.9054E-01   9.1072E-01  0.000E+00  0.000E+00  0.000E+00  1.06669E+03  1.757E-01  1.200E+01  6.000E-02  1.059E+00
   1    6    6     2     3    9.1072E-01  1.8930E-01   7.2142E-01  0.000E+00  0.000E+00  0.000E+00  1.06195E+03  1.549E-01  1.200E+01  6.000E-02  1.052E+00
   1    7    6     2     4    7.2142E-01  1.8794E-01   5.3348E-01  0.000E+00  0.000E+00  0.000E+00  1.05721E+03  1.323E-01  1.200E+01  6.000E-02  1.044E+00
   1    8    6     2     5    5.3348E-01  1.8642E-01   3.4706E-01  0.000E+00  0.000E+00  0.000E+00  1.05247E+03  1.070E-01  1.200E+01  6.000E-02  1.036E+00
   1    3    5     3     1    2.0000E+00  2.8252E-01   1.7175E+00  0.000E+00  0.000E+00  0.000E+00  1.07555E+03  1.909E+00  9.636E+00  7.227E-02  1.955E+00
   1    3    6     3     2    1.7175E+00  2.4905E-01   1.4684E+00  0.000E+00  0.000E+00  0.000E+00  1.07264E+03  1.727E+00  8.909E+00  6.682E-02  1.864E+00
   1    3    7     3     3    1.4684E+00  1.9718E-01   1.2712E+00  0.000E+00  0.000E+00  0.000E+00  1.06987E+03  1.555E+00  8.218E+00  5.547E-02  1.777E+00
   1    4    8     3     4    1.2712E+00  2.2567E-01   1.0456E+00  0.000E+00  0.000E+00  0.000E+00  1.06682E+03  1.364E+00  7.455E+00  6.709E-02  1.682E+00
   1    5    8     3     5    1.0456E+00  1.5790E-01   8.8768E-01  0.000E+00  0.000E+00  0.000E+00  1.06362E+03  1.164E+00  6.655E+00  4.991E-02  1.582E+00
   1    6    8     3     6    8.8768E-01  5.5980E-02   8.3170E-01  0.000E+00  0.000E+00  0.000E+00  1.06158E+03  1.036E+00  6.145E+00  1.844E-02  1.518E+00
   1    5   10     4     1    1.0000E+01  9.0919E-02   9.9091E+00  0.000E+00  0.000E+00  0.000E+00  1.07836E+03  6.368E-01  1.000E+01  2.500E-02  1.212E+00
   1    5    9     4     2    9.9091E+00  1.8158E-01   9.7275E+00  0.000E+00  0.000E+00  0.000E+00  1.07154E+03  6.315E-01  1.000E+01  5.000E-02  1.211E+00
   1    6    8     4     3    9.7275E+00  1.2689E-01   9.6006E+00  0.000E+00  0.000E+00  0.000E+00  1.06381E+03  6.256E-01  1.000E+01  3.500E-02  1.209E+00
   1    6    8     5     1    1.0432E+01  2.2686E-09   1.0432E+01  0.000E+00  0.000E+00  0.000E+00  1.05868E+03  6.790E-01  1.542E+01  6.166E-10  1.226E+00
   1    7    7     5     2    1.0432E+01  2.8306E-09   1.0432E+01  0.000E+00  0.000E+00  0.000E+00  1.05418E+03  6.784E-01  1.539E+01  7.695E-10  1.226E+00
   1    8    7     5     3    1.0432E+01  1.9868E-09   1.0432E+01  0.000E+00  0.000E+00  0.000E+00  1.04993E+03  6.794E-01  1.543E+01  5.400E-10  1.226E+00
   1    8    6     5     4    1.0432E+01  1.4217E-09   1.0432E+01  0.000E+00  0.000E+00  0.000E+00  1.04693E+03  6.800E-01  1.545E+01  3.863E-10  1.227E+00
   1    9    6     6     1    1.0779E+01  2.2395E-01   1.0555E+01  0.000E+00  0.000E+00  0.000E+00  1.04346E+03  7.325E-01  1.200E+01  6.000E-02  1.244E+00
   1   10    7     6     2    1.0555E+01  2.2339E-01   1.0332E+01  0.000E+00  0.000E+00  0.000E+00  1.03891E+03  7.232E-01  1.200E+01  6.000E-02  1.241E+00
   1   11    7     6     3    1.0332E+01  2.2284E-01   1.0109E+01  0.000E+00  0.000E+00  0.000E+00  1.03435E+03  7.139E-01  1.200E+01  6.000E-02  1.238E+00
   1   12    7     6     4    1.0109E+01  2.2227E-01   9.8869E+00  0.000E+00  0.000E+00  0.000E+00  1.02980E+03  7.046E-01  1.200E+01  6.000E-02  1.235E+00
   1   13    7     6     5    9.8869E+00  8.8751E-02   9.7982E+00  0.000E+00  0.000E+00  0.000E+00  1.02661E+03  6.980E-01  1.200E+01  2.400E-02  1.233E+00
   1   14    9     7     1    1.5000E+02  2.9539E-08   1.5000E+02  0.000E+00  0.000E+00  0.000E+00  1.03986E+03  2.283E+00  5.528E+01  5.591E-09  1.761E+00
   1   13    8     7     2    1.5000E+02  3.2486E-14   1.5000E+02  0.000E+00  0.000E+00  0.000E+00  1.03478E+03  2.283E+00  5.527E+01  6.150E-15  1.761E+00
   1   13    7     7     3    1.5000E+02  2.9539E-08   1.5000E+02  0.000E+00  0.000E+00  0.000E+00  1.02970E+03  2.283E+00  5.528E+01  5.591E-09  1.761E+00
   1   13    6     8     1    1.5980E+02  2.4971E-08   1.5980E+02  0.000E+00  0.000E+00  0.000E+00  1.02475E+03  2.876E+00  4.170E+01  4.250E-09  1.959E+00
   1   13    5     8     2    1.5980E+02  2.4971E-14   1.5980E+02  0.000E+00  0.000E+00  0.000E+00  1.01850E+03  2.876E+00  4.170E+01  4.250E-15  1.959E+00
   1   13    4     8     3    1.5980E+02  1.5542E-13   1.5980E+02  0.000E+00  0.000E+00  0.000E+00  1.01225E+03  2.879E+00  4.175E+01  4.254E-14  1.218E+00
   1   13    3     8     4    1.5980E+02  1.8640E-06   1.5980E+02  0.000E+00  0.000E+00  0.000E+00  1.00601E+03  2.884E+00  4.182E+01  4.261E-06  1.458E-01
   1   13    2     8     5    1.5980E+02 -1.6166E+00   1.6141E+02  0.000E+00  0.000E+00  0.000E+00  9.99765E+02  2.890E+00  4.190E+01  4.270E+00 -1.262E-01
   1   13    1     8     6    1.6141E+02 -1.6639E+00   1.6308E+02  0.000E+00  0.000E+00  0.000E+00  9.94776E+02  2.901E+00  4.206E+01  2.572E+00 -2.157E-01
   1    6    8     9     1    0.0000E+00  0.0000E+00   0.0000E+00  0.000E+00  0.000E+00  0.000E+00  1.07850E+03  0.000E+00  4.000E+00  0.000E+00  1.000E+00





UNSATURATED ZONE PACKAGE VOLUMETRIC BUDGET FOR  TIME STEP    30 STRESS PERIOD   23
  ------------------------------------------------------------------------------



     CUMULATIVE VOLUMES      L**3       RATES FOR THIS TIME STEP      L**3/T
     ------------------                 ------------------------

           IN:                                      IN:
           ---                                      ---
        INFILTRATION =   133171904.6154          INFILTRATION =           0.8475

          OUT:                                     OUT:
          ----                                     ----
              UZF ET =   618662282.7145                UZF ET =           0.0081
        UZF RECHARGE =  1500443738.5867          UZF RECHARGE =          23.4351

            IN - OUT = -1985934116.6857              IN - OUT =         -22.5957

          STORAGE:                                 STORAGE:
          --------                                 --------
      STORAGE CHANGE = -1985908385.0738        STORAGE CHANGE =         -22.5957

 PERCENT DISCREPANCY IS DIFFERENCE BETWEEN IN-OUT MINUS CHANGE IN STORAGE
 DIVIDED BY THE AVERAGE OF IN AND OUT TIMES 100

 PERCENT DISCREPANCY =          -0.00     PERCENT DISCREPANCY =           0.00






1
  VOLUMETRIC BUDGET FOR ENTIRE MODEL AT END OF TIME STEP   30, STRESS PERIOD  23
  ------------------------------------------------------------------------------

     CUMULATIVE VOLUMES      L**3       RATES FOR THIS TIME STEP      L**3/T
     ------------------                 ------------------------

           IN:                                      IN:
           ---                                      ---
             STORAGE =    48519488.0000               STORAGE =       2.9615E-02
       CONSTANT HEAD =           0.0000         CONSTANT HEAD =           0.0000
               WELLS =           0.0000                 WELLS =           0.0000
     HEAD DEP BOUNDS =    61757832.0000       HEAD DEP BOUNDS =           0.9742
      STREAM LEAKAGE =   237738256.0000        STREAM LEAKAGE =           3.5525
        UZF RECHARGE =  1500443136.0000          UZF RECHARGE =          23.4351
               GW ET =           0.0000                 GW ET =           0.0000
     SURFACE LEAKAGE =           0.0000       SURFACE LEAKAGE =           0.0000

            TOTAL IN =  1848458752.0000              TOTAL IN =          27.9914

          OUT:                                     OUT:
          ----                                     ----
             STORAGE =  1588265728.0000               STORAGE =          24.4179
       CONSTANT HEAD =           0.0000         CONSTANT HEAD =           0.0000
               WELLS =    16979570.0000                 WELLS =           0.0000
     HEAD DEP BOUNDS =    17105574.0000       HEAD DEP BOUNDS =           0.2821
      STREAM LEAKAGE =   146152176.0000        STREAM LEAKAGE =           3.2805
        UZF RECHARGE =           0.0000          UZF RECHARGE =           0.0000
               GW ET =    79770168.0000                 GW ET =       7.7208E-03
     SURFACE LEAKAGE =           0.0000       SURFACE LEAKAGE =           0.0000

           TOTAL OUT =  1848273152.0000             TOTAL OUT =          27.9883

            IN - OUT =      185600.0000              IN - OUT =       3.0937E-03

 PERCENT DISCREPANCY =           0.01     PERCENT DISCREPANCY =           0.01






         TIME SUMMARY AT END OF TIME STEP   30 IN STRESS PERIOD   23
                    SECONDS     MINUTES      HOURS       DAYS        YEARS
                    -----------------------------------------------------------
   TIME STEP LENGTH  87600.      1460.0      24.333      1.0139     2.77588E-03
 STRESS PERIOD TIME 2.62800E+06  43800.      730.00      30.417     8.32763E-02
         TOTAL TIME 6.04440E+07 1.00740E+06  16790.      699.58      1.9154    
1
1
                            STRESS PERIOD NO.   24, LENGTH =   2628000.    
                            -----------------------------------------------

                              NUMBER OF TIME STEPS =    30

                               MULTIPLIER FOR DELT =     1.000

                            INITIAL TIME STEP SIZE =   87600.00    

 WELL NO.  LAYER   ROW   COL   STRESS RATE         
 --------------------------------------------------
      1      1      6      4       0.000    
      2      1      6      7       0.000    
      3      1      7      4       0.000    
      4      1      7      5       0.000    
      5      1      8      4       0.000    
      6      1      8      5       0.000    
      7      1      9      4       0.000    
      8      1      9      5       0.000    
      9      1     10      4       0.000    
     10      1     10      5       0.000    

     10 WELLS

 REUSING NON-PARAMETER GHB CELLS FROM LAST STRESS PERIOD

      2 GHB CELLS

 REUSING STREAM SEGMENT DATA FROM LAST STRESS PERIOD



            AREAL INFILTRATION RATE
 READING ON UNIT   19 WITH FORMAT: (10F4.0)            

            1           2           3           4           5           6           7           8           9          10
 ........................................................................................................................
   1   1.0000E-10  2.0000E-10   0.000       0.000       0.000       0.000       0.000       0.000       0.000       0.000    
   2   2.0000E-10  1.0000E-10  2.0000E-10   0.000       0.000      8.0000E-10  8.0000E-10  5.0000E-10   0.000       0.000    
   3    0.000      5.0000E-10  1.0000E-10  1.0000E-10  8.0000E-10  8.0000E-10  5.0000E-10  5.0000E-10   0.000       0.000    
   4   8.0000E-10  5.0000E-10  1.0000E-10  1.0000E-10  1.0000E-10  1.0000E-10  1.0000E-10  1.0000E-10  2.0000E-10   0.000    
   5   8.0000E-10  5.0000E-10  1.0000E-10  1.0000E-10  1.0000E-10  1.0000E-10  1.0000E-10  1.0000E-10  1.0000E-10  1.0000E-10
   6   8.0000E-10  5.0000E-10  5.0000E-10  2.0000E-10  2.0000E-10  1.0000E-10  1.0000E-10  1.0000E-10  1.0000E-10  5.0000E-10
   7   8.0000E-10  5.0000E-10  5.0000E-10  2.0000E-10  2.0000E-10  1.0000E-10  1.0000E-10  2.0000E-10  2.0000E-10   0.000    
   8    0.000      5.0000E-10  5.0000E-10  2.0000E-10  2.0000E-10  1.0000E-10  1.0000E-10  2.0000E-10  5.0000E-10   0.000    
   9    0.000      5.0000E-10  5.0000E-10  2.0000E-10  2.0000E-10  1.0000E-10  1.0000E-10  2.0000E-10  5.0000E-10   0.000    
  10    0.000      5.0000E-10  5.0000E-10  2.0000E-10  2.0000E-10  1.0000E-10  1.0000E-10  2.0000E-10  5.0000E-10  8.0000E-10
  11    0.000      1.0000E-10  1.0000E-10  1.0000E-10  1.0000E-10  1.0000E-10  1.0000E-10  2.0000E-10  5.0000E-10   0.000    
  12   1.0000E-10  1.0000E-10  1.0000E-10  1.0000E-10  1.0000E-10  1.0000E-10  1.0000E-10  1.0000E-10  2.0000E-10   0.000    
  13   1.0000E-10  1.0000E-10  2.0000E-10  2.0000E-10  2.0000E-10  2.0000E-10  2.0000E-10  1.0000E-10  1.0000E-10   0.000    
  14    0.000      2.0000E-10  5.0000E-10  5.0000E-10  5.0000E-10  5.0000E-10  5.0000E-10  2.0000E-10  1.0000E-10   0.000    
  15    0.000       0.000      8.0000E-10  8.0000E-10  8.0000E-10  8.0000E-10   0.000       0.000       0.000       0.000    

                  ET RATE =  1.000000E-10

 USING ET EXTINCTION DEPTH FROM PREVIOUS STRESS PERIOD. CURRENT PERIOD IS:      24

 USING EXTINCTION WATER CONTENT FROM PREVIOUS STRESS PERIOD. CURRENT PERIOD IS:      24
 
 SOLVING FOR HEAD 
                                                   Max.-Head-Change                         Max.-Flux-Residual
  Residual-Control   Outer-Iter.   Inner-Iter.     Column Row Layer    Maximum-Head-Change  Column Row Layer    Maximum-Flux-Residual          L2-NORM 
          0                 1           2             7    6     1       0.1328132432E-01       7    6    1         0.7064125085E+00      0.1891184503E+01
          0                 2           2             7    6     1       0.2979997667E-02       7    6    1         0.1592543701E+00      0.4136821669E+00
          0                 3           2             8    2     1       0.1031261127E-02       7    6    1         0.3565749683E-01      0.1350636285E+00
          0                 4           2             8    2     1       0.4635342350E-03       8    2    1         0.1203742518E-01      0.5575709423E-01
          0                 5           2             8    2     1       0.2083505172E-03       8    2    1         0.5410615860E-02      0.2453933819E-01
          0                 6           1             8    2     1       0.9364982003E-04       8    2    1         0.2431976633E-02      0.1094529397E-01
          0                 7           1             8    2     1       0.4209387480E-04       8    2    1         0.1093129689E-02      0.4895694835E-02
          0                 8           1             8    2     1       0.1892040633E-04       8    2    1         0.4913416466E-03      0.2191294713E-02
          0                 9           1             8    2     1       0.8504359107E-05       8    2    1         0.2208488050E-03      0.9810492334E-03

    ------------------------------------------------
       NWT REQUIRED            9 OUTER ITERATIONS 
       AND A TOTAL OF         14 INNER ITERATIONS.
    ------------------------------------------------

 NO OUTPUT CONTROL FOR STRESS PERIOD   24   TIME STEP    1
 
 SOLVING FOR HEAD 
                                                   Max.-Head-Change                         Max.-Flux-Residual
  Residual-Control   Outer-Iter.   Inner-Iter.     Column Row Layer    Maximum-Head-Change  Column Row Layer    Maximum-Flux-Residual          L2-NORM 
          0                 1           2             7    6     1       0.1284262656E-01       7    6    1         0.6824535252E+00      0.1880987022E+01
          0                 2           2             7    6     1       0.2884755167E-02       7    6    1         0.1540565770E+00      0.4119295917E+00
          0                 3           2             8    2     1       0.1030759114E-02       7    6    1         0.3452865624E-01      0.1347969089E+00
          0                 4           2             8    2     1       0.4633083427E-03       8    2    1         0.1203156424E-01      0.5572039158E-01
          0                 5           2             8    2     1       0.2082488734E-03       8    2    1         0.5407978604E-02      0.2453258340E-01
          0                 6           1             8    2     1       0.9360408485E-04       8    2    1         0.2430789967E-02      0.1094314781E-01
          0                 7           1             8    2     1       0.4207329654E-04       8    2    1         0.1092595744E-02      0.4894732245E-02
          0                 8           1             8    2     1       0.1891114710E-04       8    2    1         0.4911013974E-03      0.2190889345E-02
          0                 9           1             8    2     1       0.8500193383E-05       8    2    1         0.2207407090E-03      0.9809679088E-03

    ------------------------------------------------
       NWT REQUIRED            9 OUTER ITERATIONS 
       AND A TOTAL OF         14 INNER ITERATIONS.
    ------------------------------------------------

 NO OUTPUT CONTROL FOR STRESS PERIOD   24   TIME STEP    2
 
 SOLVING FOR HEAD 
                                                   Max.-Head-Change                         Max.-Flux-Residual
  Residual-Control   Outer-Iter.   Inner-Iter.     Column Row Layer    Maximum-Head-Change  Column Row Layer    Maximum-Flux-Residual          L2-NORM 
          0                 1           2             7    6     1       0.1243334872E-01       7    6    1         0.6601102518E+00      0.1871617379E+01
          0                 2           2             7    6     1       0.2795808049E-02       7    6    1         0.1492064588E+00      0.4103217371E+00
          0                 3           2             8    2     1       0.1030257287E-02       7    6    1         0.3347401932E-01      0.1345471256E+00
          0                 4           2             8    2     1       0.4630825321E-03       8    2    1         0.1202570546E-01      0.5568276784E-01
          0                 5           2             8    2     1       0.2081472659E-03       8    2    1         0.5405342298E-02      0.2452438542E-01
          0                 6           1             8    2     1       0.9355836555E-04       8    2    1         0.2429603716E-02      0.1094016357E-01
          0                 7           1             8    2     1       0.4205272490E-04       8    2    1         0.1092061980E-02      0.4893364884E-02
          0                 8           1             8    2     1       0.1890189124E-04       8    2    1         0.4908612320E-03      0.2190168720E-02
          0                 9           1             8    2     1       0.8496028659E-05       8    2    1         0.2206326465E-03      0.9805053360E-03

    ------------------------------------------------
       NWT REQUIRED            9 OUTER ITERATIONS 
       AND A TOTAL OF         14 INNER ITERATIONS.
    ------------------------------------------------

 NO OUTPUT CONTROL FOR STRESS PERIOD   24   TIME STEP    3
 
 SOLVING FOR HEAD 
                                                   Max.-Head-Change                         Max.-Flux-Residual
  Residual-Control   Outer-Iter.   Inner-Iter.     Column Row Layer    Maximum-Head-Change  Column Row Layer    Maximum-Flux-Residual          L2-NORM 
          0                 1           2             7    6     1       0.1205121928E-01       7    6    1         0.6392618516E+00      0.1862683996E+01
          0                 2           2             7    6     1       0.2712716922E-02       7    6    1         0.1446767803E+00      0.4087579019E+00
          0                 3           2             8    2     1       0.1029755665E-02       7    6    1         0.3248870390E-01      0.1342833643E+00
          0                 4           2             8    2     1       0.4628568159E-03       8    2    1         0.1201984908E-01      0.5563416191E-01
          0                 5           2             8    2     1       0.2080457018E-03       8    2    1         0.5402707097E-02      0.2451115348E-01
          0                 6           1             8    2     1       0.9351266601E-04       8    2    1         0.2428417971E-02      0.1093513332E-01
          0                 7           1             8    2     1       0.4203216253E-04       8    2    1         0.1091528449E-02      0.4891180289E-02
          0                 8           1             8    2     1       0.1889263926E-04       8    2    1         0.4906211706E-03      0.2189188858E-02
          0                 9           1             8    2     1       0.8491866186E-05       8    2    1         0.2205246369E-03      0.9800659729E-03

    ------------------------------------------------
       NWT REQUIRED            9 OUTER ITERATIONS 
       AND A TOTAL OF         14 INNER ITERATIONS.
    ------------------------------------------------

 NO OUTPUT CONTROL FOR STRESS PERIOD   24   TIME STEP    4
 
 SOLVING FOR HEAD 
                                                   Max.-Head-Change                         Max.-Flux-Residual
  Residual-Control   Outer-Iter.   Inner-Iter.     Column Row Layer    Maximum-Head-Change  Column Row Layer    Maximum-Flux-Residual          L2-NORM 
          0                 1           2             7    6     1       0.1169411837E-01       7    6    1         0.6197904251E+00      0.1853891730E+01
          0                 2           2             7    6     1       0.2635012397E-02       7    6    1         0.1404426377E+00      0.4072241011E+00
          0                 3           2             8    2     1       0.1029245077E-02       7    6    1         0.3156707531E-01      0.1340347575E+00
          0                 4           2             8    2     1       0.4626270899E-03       8    2    1         0.1201388815E-01      0.5559095161E-01
          0                 5           2             8    2     1       0.2079423443E-03       8    2    1         0.5400025140E-02      0.2449996823E-01
          0                 6           1             8    2     1       0.9346616474E-04       8    2    1         0.2427211321E-02      0.1093096196E-01
          0                 7           1             8    2     1       0.4201124161E-04       8    2    1         0.1090985568E-02      0.4889371424E-02
          0                 8           1             8    2     1       0.1888322720E-04       8    2    1         0.4903769301E-03      0.2188369553E-02
          0                 9           1             8    2     1       0.8487631806E-05       8    2    1         0.2204147534E-03      0.9796888520E-03

    ------------------------------------------------
       NWT REQUIRED            9 OUTER ITERATIONS 
       AND A TOTAL OF         14 INNER ITERATIONS.
    ------------------------------------------------

 NO OUTPUT CONTROL FOR STRESS PERIOD   24   TIME STEP    5
 
 SOLVING FOR HEAD 
                                                   Max.-Head-Change                         Max.-Flux-Residual
  Residual-Control   Outer-Iter.   Inner-Iter.     Column Row Layer    Maximum-Head-Change  Column Row Layer    Maximum-Flux-Residual          L2-NORM 
          0                 1           2             7    6     1       0.1136009285E-01       7    6    1         0.6015876131E+00      0.1845789731E+01
          0                 2           2             7    6     1       0.2562278476E-02       7    6    1         0.1364810591E+00      0.4058796856E+00
          0                 3           2             8    2     1       0.1028744061E-02       7    6    1         0.3070422997E-01      0.1338208940E+00
          0                 4           2             8    2     1       0.4624016653E-03       8    2    1         0.1200803894E-01      0.5555490499E-01
          0                 5           2             8    2     1       0.2078409194E-03       8    2    1         0.5397393378E-02      0.2449105770E-01
          0                 6           1             8    2     1       0.9342053186E-04       8    2    1         0.2426027225E-02      0.1092773462E-01
          0                 7           1             8    2     1       0.4199071112E-04       8    2    1         0.1090452824E-02      0.4887998624E-02
          0                 8           1             8    2     1       0.1887399023E-04       8    2    1         0.4901372412E-03      0.2187791412E-02
          0                 9           1             8    2     1       0.8483475836E-05       8    2    1         0.2203069177E-03      0.9795179283E-03

    ------------------------------------------------
       NWT REQUIRED            9 OUTER ITERATIONS 
       AND A TOTAL OF         14 INNER ITERATIONS.
    ------------------------------------------------

 NO OUTPUT CONTROL FOR STRESS PERIOD   24   TIME STEP    6
 
 SOLVING FOR HEAD 
                                                   Max.-Head-Change                         Max.-Flux-Residual
  Residual-Control   Outer-Iter.   Inner-Iter.     Column Row Layer    Maximum-Head-Change  Column Row Layer    Maximum-Flux-Residual          L2-NORM 
          0                 1           2             7    6     1       0.1104746835E-01       7    6    1         0.5845610264E+00      0.1838705278E+01
          0                 2           2             7    6     1       0.2494156031E-02       7    6    1         0.1327723007E+00      0.4046781405E+00
          0                 3           2             8    2     1       0.1028234084E-02       7    6    1         0.2989592591E-01      0.1336298846E+00
          0                 4           2             8    2     1       0.4621722228E-03       8    2    1         0.1200208518E-01      0.5552379337E-01
          0                 5           2             8    2     1       0.2077376936E-03       8    2    1         0.5394714753E-02      0.2448378493E-01
          0                 6           1             8    2     1       0.9337409174E-04       8    2    1         0.2424822121E-02      0.1092517915E-01
          0                 7           1             8    2     1       0.4196981847E-04       8    2    1         0.1089910659E-02      0.4886904496E-02
          0                 8           1             8    2     1       0.1886459118E-04       8    2    1         0.4898933319E-03      0.2187241293E-02
          0                 9           1             8    2     1       0.8479247708E-05       8    2    1         0.2201971894E-03      0.9791712697E-03

    ------------------------------------------------
       NWT REQUIRED            9 OUTER ITERATIONS 
       AND A TOTAL OF         14 INNER ITERATIONS.
    ------------------------------------------------

 NO OUTPUT CONTROL FOR STRESS PERIOD   24   TIME STEP    7
 
 SOLVING FOR HEAD 
                                                   Max.-Head-Change                         Max.-Flux-Residual
  Residual-Control   Outer-Iter.   Inner-Iter.     Column Row Layer    Maximum-Head-Change  Column Row Layer    Maximum-Flux-Residual          L2-NORM 
          0                 1           2             7    6     1       0.1075471567E-01       7    6    1         0.5686258700E+00      0.1832119364E+01
          0                 2           2             7    6     1       0.2430319190E-02       7    6    1         0.1292983723E+00      0.4036075313E+00
          0                 3           2             8    2     1       0.1027733744E-02       7    6    1         0.2913832139E-01      0.1334620640E+00
          0                 4           2             8    2     1       0.4619471164E-03       8    2    1         0.1199624394E-01      0.5549725401E-01
          0                 5           2             8    2     1       0.2076364185E-03       8    2    1         0.5392086738E-02      0.2447783532E-01
          0                 6           1             8    2     1       0.9332852864E-04       8    2    1         0.2423639780E-02      0.1092308283E-01
          0                 7           1             8    2     1       0.4194932037E-04       8    2    1         0.1089378738E-02      0.4885967913E-02
          0                 8           1             8    2     1       0.1885536971E-04       8    2    1         0.4896540322E-03      0.2186815912E-02
          0                 9           1             8    2     1       0.8475099242E-05       8    2    1         0.2200895356E-03      0.9789710506E-03

    ------------------------------------------------
       NWT REQUIRED            9 OUTER ITERATIONS 
       AND A TOTAL OF         14 INNER ITERATIONS.
    ------------------------------------------------

 NO OUTPUT CONTROL FOR STRESS PERIOD   24   TIME STEP    8
 
 SOLVING FOR HEAD 
                                                   Max.-Head-Change                         Max.-Flux-Residual
  Residual-Control   Outer-Iter.   Inner-Iter.     Column Row Layer    Maximum-Head-Change  Column Row Layer    Maximum-Flux-Residual          L2-NORM 
          0                 1           2             7    6     1       0.1048020400E-01       7    6    1         0.5536921410E+00      0.1826124605E+01
          0                 2           2             7    6     1       0.2370418359E-02       7    6    1         0.1260400457E+00      0.4026177524E+00
          0                 3           2             8    2     1       0.1027224491E-02       7    6    1         0.2842728784E-01      0.1333025413E+00
          0                 4           2             8    2     1       0.4617180133E-03       8    2    1         0.1199029868E-01      0.5546961580E-01
          0                 5           2             8    2     1       0.2075333513E-03       8    2    1         0.5389412098E-02      0.2447111422E-01
          0                 6           1             8    2     1       0.9328216280E-04       8    2    1         0.2422436541E-02      0.1092147618E-01
          0                 7           1             8    2     1       0.4192846224E-04       8    2    1         0.1088837446E-02      0.4884757648E-02
          0                 8           1             8    2     1       0.1884598704E-04       8    2    1         0.4894105317E-03      0.2186229973E-02
          0                 9           1             8    2     1       0.8470878493E-05       8    2    1         0.2199799955E-03      0.9786975687E-03

    ------------------------------------------------
       NWT REQUIRED            9 OUTER ITERATIONS 
       AND A TOTAL OF         14 INNER ITERATIONS.
    ------------------------------------------------

 NO OUTPUT CONTROL FOR STRESS PERIOD   24   TIME STEP    9
 
 SOLVING FOR HEAD 
                                                   Max.-Head-Change                         Max.-Flux-Residual
  Residual-Control   Outer-Iter.   Inner-Iter.     Column Row Layer    Maximum-Head-Change  Column Row Layer    Maximum-Flux-Residual          L2-NORM 
          0                 1           2             7    6     1       0.1022278080E-01       7    6    1         0.5396962999E+00      0.1820474348E+01
          0                 2           2             7    6     1       0.2314206022E-02       7    6    1         0.1229837249E+00      0.4016728125E+00
          0                 3           2             8    2     1       0.1026715624E-02       7    6    1         0.2775990045E-01      0.1331407315E+00
          0                 4           2             8    2     1       0.4614890873E-03       8    2    1         0.1198435797E-01      0.5543814250E-01
          0                 5           2             8    2     1       0.2074303658E-03       8    2    1         0.5386739538E-02      0.2446157555E-01
          0                 6           1             8    2     1       0.9323583361E-04       8    2    1         0.2421234250E-02      0.1091680048E-01
          0                 7           1             8    2     1       0.4190762148E-04       8    2    1         0.1088296590E-02      0.4883195072E-02
          0                 8           1             8    2     1       0.1883661176E-04       8    2    1         0.4891672247E-03      0.2185550622E-02
          0                 9           1             8    2     1       0.8466661370E-05       8    2    1         0.2198705464E-03      0.9783910481E-03

    ------------------------------------------------
       NWT REQUIRED            9 OUTER ITERATIONS 
       AND A TOTAL OF         14 INNER ITERATIONS.
    ------------------------------------------------

 NO OUTPUT CONTROL FOR STRESS PERIOD   24   TIME STEP   10
 
 SOLVING FOR HEAD 
                                                   Max.-Head-Change                         Max.-Flux-Residual
  Residual-Control   Outer-Iter.   Inner-Iter.     Column Row Layer    Maximum-Head-Change  Column Row Layer    Maximum-Flux-Residual          L2-NORM 
          0                 1           2             7    6     1       0.8888766129E-02       3   13    1         0.4691383536E+00      0.1798623799E+01
          0                 2           2             8    2     1       0.2283093048E-02       7    6    1         0.9265952949E-01      0.3932924713E+00
          0                 3           2             8    2     1       0.1026207208E-02       8    2    1         0.2664944900E-01      0.1314271109E+00
          0                 4           2             8    2     1       0.4612603752E-03       8    2    1         0.1197842256E-01      0.5518266199E-01
          0                 5           2             8    2     1       0.2073274804E-03       8    2    1         0.5384069482E-02      0.2442415945E-01
          0                 6           1             8    2     1       0.9318955206E-04       8    2    1         0.2420033144E-02      0.1090988205E-01
          0                 7           1             8    2     1       0.4188680236E-04       8    2    1         0.1087756289E-02      0.4881257196E-02
          0                 8           1             8    2     1       0.1882724710E-04       8    2    1         0.4889241877E-03      0.2184806836E-02
          0                 9           1             8    2     1       0.8462448750E-05       8    2    1         0.2197612246E-03      0.9780679707E-03

    ------------------------------------------------
       NWT REQUIRED            9 OUTER ITERATIONS 
       AND A TOTAL OF         14 INNER ITERATIONS.
    ------------------------------------------------

 NO OUTPUT CONTROL FOR STRESS PERIOD   24   TIME STEP   11
 
 SOLVING FOR HEAD 
                                                   Max.-Head-Change                         Max.-Flux-Residual
  Residual-Control   Outer-Iter.   Inner-Iter.     Column Row Layer    Maximum-Head-Change  Column Row Layer    Maximum-Flux-Residual          L2-NORM 
          0                 1           2             3   13     1       0.8703553499E-02       3   13    1         0.4608958519E+00      0.1766996443E+01
          0                 2           2             8    2     1       0.2281963799E-02       8    6    1         0.6984964842E-01      0.3878238417E+00
          0                 3           2             8    2     1       0.1025699199E-02       8    2    1         0.2663626574E-01      0.1307482491E+00
          0                 4           2             8    2     1       0.4610318439E-03       8    2    1         0.1197249190E-01      0.5509124941E-01
          0                 5           2             8    2     1       0.2072246763E-03       8    2    1         0.5381401548E-02      0.2440172286E-01
          0                 6           1             8    2     1       0.9314330665E-04       8    2    1         0.2418832984E-02      0.1090101588E-01
          0                 7           1             8    2     1       0.4186600000E-04       8    2    1         0.1087216413E-02      0.4877239957E-02
          0                 8           1             8    2     1       0.1881788969E-04       8    2    1         0.4886813326E-03      0.2182933064E-02
          0                 9           1             8    2     1       0.8458239631E-05       8    2    1         0.2196519810E-03      0.9771991091E-03

    ------------------------------------------------
       NWT REQUIRED            9 OUTER ITERATIONS 
       AND A TOTAL OF         14 INNER ITERATIONS.
    ------------------------------------------------

 NO OUTPUT CONTROL FOR STRESS PERIOD   24   TIME STEP   12
 
 SOLVING FOR HEAD 
                                                   Max.-Head-Change                         Max.-Flux-Residual
  Residual-Control   Outer-Iter.   Inner-Iter.     Column Row Layer    Maximum-Head-Change  Column Row Layer    Maximum-Flux-Residual          L2-NORM 
          0                 1           2             3   13     1       0.8553658738E-02       3   13    1         0.4528857324E+00      0.1763056043E+01
          0                 2           2             8    2     1       0.2280835610E-02       8    6    1         0.6936419043E-01      0.3873972851E+00
          0                 3           2             8    2     1       0.1025191701E-02       8    2    1         0.2662309502E-01      0.1306487222E+00
          0                 4           2             8    2     1       0.4608035584E-03       8    2    1         0.1196656728E-01      0.5505306574E-01
          0                 5           2             8    2     1       0.2071219895E-03       8    2    1         0.5378736510E-02      0.2438554344E-01
          0                 6           1             8    2     1       0.9309711727E-04       8    2    1         0.2417634205E-02      0.1089402076E-01
          0                 7           1             8    2     1       0.4184522353E-04       8    2    1         0.1086677188E-02      0.4874188903E-02
          0                 8           1             8    2     1       0.1880854454E-04       8    2    1         0.4884387896E-03      0.2181613396E-02
          0                 9           1             8    2     1       0.8454036515E-05       8    2    1         0.2195428886E-03      0.9766240295E-03

    ------------------------------------------------
       NWT REQUIRED            9 OUTER ITERATIONS 
       AND A TOTAL OF         14 INNER ITERATIONS.
    ------------------------------------------------

 NO OUTPUT CONTROL FOR STRESS PERIOD   24   TIME STEP   13
 
 SOLVING FOR HEAD 
                                                   Max.-Head-Change                         Max.-Flux-Residual
  Residual-Control   Outer-Iter.   Inner-Iter.     Column Row Layer    Maximum-Head-Change  Column Row Layer    Maximum-Flux-Residual          L2-NORM 
          0                 1           2             3   13     1       0.8407962747E-02       3   13    1         0.4451005391E+00      0.1759413997E+01
          0                 2           2             8    2     1       0.2279708444E-02       8    6    1         0.6890855163E-01      0.3870838923E+00
          0                 3           2             8    2     1       0.1024684659E-02       8    2    1         0.2660993622E-01      0.1306144195E+00
          0                 4           2             8    2     1       0.4605754755E-03       8    2    1         0.1196064797E-01      0.5504417014E-01
          0                 5           2             8    2     1       0.2070193929E-03       8    2    1         0.5376073837E-02      0.2438161695E-01
          0                 6           1             8    2     1       0.9305096778E-04       8    2    1         0.2416436480E-02      0.1089210769E-01
          0                 7           1             8    2     1       0.4182446544E-04       8    2    1         0.1086138440E-02      0.4873258254E-02
          0                 8           1             8    2     1       0.1879920752E-04       8    2    1         0.4881964570E-03      0.2181165446E-02
          0                 9           1             8    2     1       0.8449836901E-05       8    2    1         0.2194338879E-03      0.9764105208E-03

    ------------------------------------------------
       NWT REQUIRED            9 OUTER ITERATIONS 
       AND A TOTAL OF         14 INNER ITERATIONS.
    ------------------------------------------------

 NO OUTPUT CONTROL FOR STRESS PERIOD   24   TIME STEP   14
 
 SOLVING FOR HEAD 
                                                   Max.-Head-Change                         Max.-Flux-Residual
  Residual-Control   Outer-Iter.   Inner-Iter.     Column Row Layer    Maximum-Head-Change  Column Row Layer    Maximum-Flux-Residual          L2-NORM 
          0                 1           2             3   13     1       0.8266196128E-02       3   13    1         0.4375284071E+00      0.1755939872E+01
          0                 2           2             8    2     1       0.2278582365E-02       8    6    1         0.6848020853E-01      0.3867380928E+00
          0                 3           2             8    2     1       0.1024178120E-02       8    2    1         0.2659679018E-01      0.1305470950E+00
          0                 4           2             8    2     1       0.4603476262E-03       8    2    1         0.1195473457E-01      0.5501773731E-01
          0                 5           2             8    2     1       0.2069169039E-03       8    2    1         0.5373413897E-02      0.2436927716E-01
          0                 6           1             8    2     1       0.9300486819E-04       8    2    1         0.2415240023E-02      0.1088622066E-01
          0                 7           1             8    2     1       0.4180373048E-04       8    2    1         0.1085600276E-02      0.4870470351E-02
          0                 8           1             8    2     1       0.1878988101E-04       8    2    1         0.4879543938E-03      0.2179875496E-02
          0                 9           1             8    2     1       0.8445641788E-05       8    2    1         0.2193250131E-03      0.9757872820E-03

    ------------------------------------------------
       NWT REQUIRED            9 OUTER ITERATIONS 
       AND A TOTAL OF         14 INNER ITERATIONS.
    ------------------------------------------------

 NO OUTPUT CONTROL FOR STRESS PERIOD   24   TIME STEP   15
 
 SOLVING FOR HEAD 
                                                   Max.-Head-Change                         Max.-Flux-Residual
  Residual-Control   Outer-Iter.   Inner-Iter.     Column Row Layer    Maximum-Head-Change  Column Row Layer    Maximum-Flux-Residual          L2-NORM 
          0                 1           2             3   13     1       0.8128283267E-02       3   13    1         0.4301618615E+00      0.1752480254E+01
          0                 2           2             8    2     1       0.2277457425E-02       7    6    1         0.6833635339E-01      0.3863373598E+00
          0                 3           2             8    2     1       0.1023672110E-02       8    2    1         0.2658365751E-01      0.1304564374E+00
          0                 4           2             8    2     1       0.4601200209E-03       8    2    1         0.1194882737E-01      0.5498292395E-01
          0                 5           2             8    2     1       0.2068145281E-03       8    2    1         0.5370756828E-02      0.2435402066E-01
          0                 6           1             8    2     1       0.9295882100E-04       8    2    1         0.2414044892E-02      0.1087938708E-01
          0                 7           1             8    2     1       0.4178301929E-04       8    2    1         0.1085062721E-02      0.4867387879E-02
          0                 8           1             8    2     1       0.1878056587E-04       8    2    1         0.4877126150E-03      0.2178463100E-02
          0                 9           1             8    2     1       0.8441452053E-05       8    2    1         0.2192162672E-03      0.9751697903E-03

    ------------------------------------------------
       NWT REQUIRED            9 OUTER ITERATIONS 
       AND A TOTAL OF         14 INNER ITERATIONS.
    ------------------------------------------------

 NO OUTPUT CONTROL FOR STRESS PERIOD   24   TIME STEP   16
 
 SOLVING FOR HEAD 
                                                   Max.-Head-Change                         Max.-Flux-Residual
  Residual-Control   Outer-Iter.   Inner-Iter.     Column Row Layer    Maximum-Head-Change  Column Row Layer    Maximum-Flux-Residual          L2-NORM 
          0                 1           2             3   13     1       0.7993952677E-02       3   13    1         0.4229988955E+00      0.1748613603E+01
          0                 2           2             8    2     1       0.2276313050E-02       7    6    1         0.6823565965E-01      0.3859489776E+00
          0                 3           2             8    2     1       0.1023157396E-02       8    2    1         0.2657029813E-01      0.1304100989E+00
          0                 4           2             8    2     1       0.4598885184E-03       8    2    1         0.1194281865E-01      0.5496923644E-01
          0                 5           2             8    2     1       0.2067104076E-03       8    2    1         0.5368054301E-02      0.2434835343E-01
          0                 6           1             8    2     1       0.9291199220E-04       8    2    1         0.2412829399E-02      0.1087684213E-01
          0                 7           1             8    2     1       0.4176195806E-04       8    2    1         0.1084516050E-02      0.4867547833E-02
          0                 8           1             8    2     1       0.1877109379E-04       8    2    1         0.4874667523E-03      0.2177936890E-02
          0                 9           1             8    2     1       0.8437192412E-05       8    2    1         0.2191056938E-03      0.9814809684E-03

    ------------------------------------------------
       NWT REQUIRED            9 OUTER ITERATIONS 
       AND A TOTAL OF         14 INNER ITERATIONS.
    ------------------------------------------------

 NO OUTPUT CONTROL FOR STRESS PERIOD   24   TIME STEP   17
 
 SOLVING FOR HEAD 
                                                   Max.-Head-Change                         Max.-Flux-Residual
  Residual-Control   Outer-Iter.   Inner-Iter.     Column Row Layer    Maximum-Head-Change  Column Row Layer    Maximum-Flux-Residual          L2-NORM 
          0                 1           2             3   13     1       0.7865152399E-02       3   13    1         0.4161208379E+00      0.1745507039E+01
          0                 2           2             8    2     1       0.2275190652E-02       7    6    1         0.6811128315E-01      0.3855660242E+00
          0                 3           2             8    2     1       0.1022652558E-02       8    2    1         0.2655719527E-01      0.1303010491E+00
          0                 4           2             8    2     1       0.4596614533E-03       8    2    1         0.1193692519E-01      0.5492421465E-01
          0                 5           2             8    2     1       0.2066082801E-03       8    2    1         0.5365403558E-02      0.2432780520E-01
          0                 6           1             8    2     1       0.9286605919E-04       8    2    1         0.2411637180E-02      0.1086737443E-01
          0                 7           1             8    2     1       0.4174129951E-04       8    2    1         0.1083979837E-02      0.4861872116E-02
          0                 8           1             8    2     1       0.1876180267E-04       8    2    1         0.4872255893E-03      0.2175934769E-02
          0                 9           1             8    2     1       0.8433013932E-05       8    2    1         0.2189972312E-03      0.9740133345E-03

    ------------------------------------------------
       NWT REQUIRED            9 OUTER ITERATIONS 
       AND A TOTAL OF         14 INNER ITERATIONS.
    ------------------------------------------------

 NO OUTPUT CONTROL FOR STRESS PERIOD   24   TIME STEP   18
 
 SOLVING FOR HEAD 
                                                   Max.-Head-Change                         Max.-Flux-Residual
  Residual-Control   Outer-Iter.   Inner-Iter.     Column Row Layer    Maximum-Head-Change  Column Row Layer    Maximum-Flux-Residual          L2-NORM 
          0                 1           2             3   13     1       0.7737838852E-02       3   13    1         0.4093193562E+00      0.1742793495E+01
          0                 2           2             8    2     1       0.2274048871E-02       7    6    1         0.6796419106E-01      0.3853118410E+00
          0                 3           2             8    2     1       0.1022139029E-02       8    2    1         0.2654386628E-01      0.1302552710E+00
          0                 4           2             8    2     1       0.4594304924E-03       8    2    1         0.1193093035E-01      0.5490939594E-01
          0                 5           2             8    2     1       0.2065044063E-03       8    2    1         0.5362707365E-02      0.2432168105E-01
          0                 6           1             8    2     1       0.9281934320E-04       8    2    1         0.2410424583E-02      0.1086443505E-01
          0                 7           1             8    2     1       0.4172028981E-04       8    2    1         0.1083434487E-02      0.4860521542E-02
          0                 8           1             8    2     1       0.1875235410E-04       8    2    1         0.4869803297E-03      0.2175320320E-02
          0                 9           1             8    2     1       0.8428764795E-05       8    2    1         0.2188869339E-03      0.9737381198E-03

    ------------------------------------------------
       NWT REQUIRED            9 OUTER ITERATIONS 
       AND A TOTAL OF         14 INNER ITERATIONS.
    ------------------------------------------------

 NO OUTPUT CONTROL FOR STRESS PERIOD   24   TIME STEP   19
 
 SOLVING FOR HEAD 
                                                   Max.-Head-Change                         Max.-Flux-Residual
  Residual-Control   Outer-Iter.   Inner-Iter.     Column Row Layer    Maximum-Head-Change  Column Row Layer    Maximum-Flux-Residual          L2-NORM 
          0                 1           2             3   13     1       0.7614093802E-02       3   13    1         0.4027093598E+00      0.1740181754E+01
          0                 2           2             8    2     1       0.2272929180E-02       7    6    1         0.6779878047E-01      0.3850806572E+00
          0                 3           2             8    2     1       0.1021635436E-02       8    2    1         0.2653079515E-01      0.1302216497E+00
          0                 4           2             8    2     1       0.4592040000E-03       8    2    1         0.1192505149E-01      0.5489717177E-01
          0                 5           2             8    2     1       0.2064025424E-03       8    2    1         0.5360063337E-02      0.2431582969E-01
          0                 6           1             8    2     1       0.9277353111E-04       8    2    1         0.2409235445E-02      0.1086181806E-01
          0                 7           1             8    2     1       0.4169968641E-04       8    2    1         0.1082899686E-02      0.4859287730E-02
          0                 8           1             8    2     1       0.1874308848E-04       8    2    1         0.4867398156E-03      0.2174737783E-02
          0                 9           1             8    2     1       0.8424597695E-05       8    2    1         0.2187787678E-03      0.9734613516E-03

    ------------------------------------------------
       NWT REQUIRED            9 OUTER ITERATIONS 
       AND A TOTAL OF         14 INNER ITERATIONS.
    ------------------------------------------------

 NO OUTPUT CONTROL FOR STRESS PERIOD   24   TIME STEP   20
 
 SOLVING FOR HEAD 
                                                   Max.-Head-Change                         Max.-Flux-Residual
  Residual-Control   Outer-Iter.   Inner-Iter.     Column Row Layer    Maximum-Head-Change  Column Row Layer    Maximum-Flux-Residual          L2-NORM 
          0                 1           2             3   13     1       0.7491704217E-02       3   13    1         0.3961727881E+00      0.1737611893E+01
          0                 2           2             8    2     1       0.2271790200E-02       7    6    1         0.6761653230E-01      0.3848145873E+00
          0                 3           2             8    2     1       0.1021123195E-02       8    2    1         0.2651749898E-01      0.1301785860E+00
          0                 4           2             8    2     1       0.4589736302E-03       8    2    1         0.1191907173E-01      0.5488299380E-01
          0                 5           2             8    2     1       0.2062989404E-03       8    2    1         0.5357374081E-02      0.2430980197E-01
          0                 6           1             8    2     1       0.9272693980E-04       8    2    1         0.2408026033E-02      0.1085911266E-01
          0                 7           1             8    2     1       0.4167873424E-04       8    2    1         0.1082355798E-02      0.4858061284E-02
          0                 8           1             8    2     1       0.1873366618E-04       8    2    1         0.4864952247E-03      0.2174180802E-02
          0                 9           1             8    2     1       0.8420360439E-05       8    2    1         0.2186687757E-03      0.9732083430E-03

    ------------------------------------------------
       NWT REQUIRED            9 OUTER ITERATIONS 
       AND A TOTAL OF         14 INNER ITERATIONS.
    ------------------------------------------------

 NO OUTPUT CONTROL FOR STRESS PERIOD   24   TIME STEP   21
 
 SOLVING FOR HEAD 
                                                   Max.-Head-Change                         Max.-Flux-Residual
  Residual-Control   Outer-Iter.   Inner-Iter.     Column Row Layer    Maximum-Head-Change  Column Row Layer    Maximum-Flux-Residual          L2-NORM 
          0                 1           2             3   13     1       0.7374570274E-02       3   13    1         0.3899164808E+00      0.1735163295E+01
          0                 2           2             8    2     1       0.2270673331E-02       7    6    1         0.6742120329E-01      0.3845775052E+00
          0                 3           2             8    2     1       0.1020620879E-02       8    2    1         0.2650446083E-01      0.1301397769E+00
          0                 4           2             8    2     1       0.4587477158E-03       8    2    1         0.1191320780E-01      0.5486985067E-01
          0                 5           2             8    2     1       0.2061973378E-03       8    2    1         0.5354736806E-02      0.2430398939E-01
          0                 6           1             8    2     1       0.9268124588E-04       8    2    1         0.2406839951E-02      0.1085641499E-01
          0                 7           1             8    2     1       0.4165818461E-04       8    2    1         0.1081822383E-02      0.4856805528E-02
          0                 8           1             8    2     1       0.1872442470E-04       8    2    1         0.4862553346E-03      0.2173598591E-02
          0                 9           1             8    2     1       0.8416204469E-05       8    2    1         0.2185608929E-03      0.9729395637E-03

    ------------------------------------------------
       NWT REQUIRED            9 OUTER ITERATIONS 
       AND A TOTAL OF         14 INNER ITERATIONS.
    ------------------------------------------------

 NO OUTPUT CONTROL FOR STRESS PERIOD   24   TIME STEP   22
 
 SOLVING FOR HEAD 
                                                   Max.-Head-Change                         Max.-Flux-Residual
  Residual-Control   Outer-Iter.   Inner-Iter.     Column Row Layer    Maximum-Head-Change  Column Row Layer    Maximum-Flux-Residual          L2-NORM 
          0                 1           2             3   13     1       0.7260605256E-02       3   13    1         0.3838298495E+00      0.1732873080E+01
          0                 2           2             8    2     1       0.2269537274E-02       7    6    1         0.6721493715E-01      0.3843685345E+00
          0                 3           2             8    2     1       0.1020109981E-02       8    2    1         0.2649119892E-01      0.1301117585E+00
          0                 4           2             8    2     1       0.4585179619E-03       8    2    1         0.1190724376E-01      0.5486152226E-01
          0                 5           2             8    2     1       0.2060940179E-03       8    2    1         0.5352054756E-02      0.2430031242E-01
          0                 6           1             8    2     1       0.9263478401E-04       8    2    1         0.2405633841E-02      0.1085465867E-01
          0                 7           1             8    2     1       0.4163729134E-04       8    2    1         0.1081280005E-02      0.4855963188E-02
          0                 8           1             8    2     1       0.1871502940E-04       8    2    1         0.4860114350E-03      0.2173197455E-02
          0                 9           1             8    2     1       0.8411979593E-05       8    2    1         0.2184512150E-03      0.9727499184E-03

    ------------------------------------------------
       NWT REQUIRED            9 OUTER ITERATIONS 
       AND A TOTAL OF         14 INNER ITERATIONS.
    ------------------------------------------------

 NO OUTPUT CONTROL FOR STRESS PERIOD   24   TIME STEP   23
 
 SOLVING FOR HEAD 
                                                   Max.-Head-Change                         Max.-Flux-Residual
  Residual-Control   Outer-Iter.   Inner-Iter.     Column Row Layer    Maximum-Head-Change  Column Row Layer    Maximum-Flux-Residual          L2-NORM 
          0                 1           2             3   13     1       0.7149702609E-02       3   13    1         0.3779075120E+00      0.1730529543E+01
          0                 2           2             8    2     1       0.2268402863E-02       7    6    1         0.6699962315E-01      0.3841440899E+00
          0                 3           2             8    2     1       0.1019599846E-02       8    2    1         0.2647795633E-01      0.1300835352E+00
          0                 4           2             8    2     1       0.4582885622E-03       8    2    1         0.1190128870E-01      0.5485359406E-01
          0                 5           2             8    2     1       0.2059908621E-03       8    2    1         0.5349376865E-02      0.2429684008E-01
          0                 6           1             8    2     1       0.9258839741E-04       8    2    1         0.2404429654E-02      0.1085299737E-01
          0                 7           1             8    2     1       0.4161643320E-04       8    2    1         0.1080738523E-02      0.4855170236E-02
          0                 8           1             8    2     1       0.1870565036E-04       8    2    1         0.4857679510E-03      0.2172813640E-02
          0                 9           1             8    2     1       0.8407762221E-05       8    2    1         0.2183417315E-03      0.9725680105E-03

    ------------------------------------------------
       NWT REQUIRED            9 OUTER ITERATIONS 
       AND A TOTAL OF         14 INNER ITERATIONS.
    ------------------------------------------------

 NO OUTPUT CONTROL FOR STRESS PERIOD   24   TIME STEP   24
 
 SOLVING FOR HEAD 
                                                   Max.-Head-Change                         Max.-Flux-Residual
  Residual-Control   Outer-Iter.   Inner-Iter.     Column Row Layer    Maximum-Head-Change  Column Row Layer    Maximum-Flux-Residual          L2-NORM 
          0                 1           2             3   13     1       0.7041843079E-02       3   13    1         0.3721482393E+00      0.1728358058E+01
          0                 2           2             8    2     1       0.2267270013E-02       7    6    1         0.6677576453E-01      0.3839382656E+00
          0                 3           2             8    2     1       0.1019090395E-02       8    2    1         0.2646473187E-01      0.1300560543E+00
          0                 4           2             8    2     1       0.4580594621E-03       8    2    1         0.1189534159E-01      0.5484560794E-01
          0                 5           2             8    2     1       0.2058878373E-03       8    2    1         0.5346702453E-02      0.2429332338E-01
          0                 6           1             8    2     1       0.9254206897E-04       8    2    1         0.2403226995E-02      0.1085131549E-01
          0                 7           1             8    2     1       0.4159559970E-04       8    2    1         0.1080197700E-02      0.4854352550E-02
          0                 8           1             8    2     1       0.1869628233E-04       8    2    1         0.4855247592E-03      0.2172427879E-02
          0                 9           1             8    2     1       0.8403549975E-05       8    2    1         0.2182323755E-03      0.9723850661E-03

    ------------------------------------------------
       NWT REQUIRED            9 OUTER ITERATIONS 
       AND A TOTAL OF         14 INNER ITERATIONS.
    ------------------------------------------------

 NO OUTPUT CONTROL FOR STRESS PERIOD   24   TIME STEP   25
 
 SOLVING FOR HEAD 
                                                   Max.-Head-Change                         Max.-Flux-Residual
  Residual-Control   Outer-Iter.   Inner-Iter.     Column Row Layer    Maximum-Head-Change  Column Row Layer    Maximum-Flux-Residual          L2-NORM 
          0                 1           2             3   13     1       0.6936801584E-02       3   13    1         0.3665423929E+00      0.1726233295E+01
          0                 2           2             8    2     1       0.2266138782E-02       7    6    1         0.6654497014E-01      0.3837141992E+00
          0                 3           2             8    2     1       0.1018581685E-02       8    2    1         0.2645152638E-01      0.1300149572E+00
          0                 4           2             8    2     1       0.4578307009E-03       8    2    1         0.1188940315E-01      0.5483153481E-01
          0                 5           2             8    2     1       0.2057849676E-03       8    2    1         0.5344032015E-02      0.2428730987E-01
          0                 6           1             8    2     1       0.9249581080E-04       8    2    1         0.2402026150E-02      0.1084861724E-01
          0                 7           1             8    2     1       0.4157479934E-04       8    2    1         0.1079657714E-02      0.4853134866E-02
          0                 8           1             8    2     1       0.1868692892E-04       8    2    1         0.4852819409E-03      0.2171876796E-02
          0                 9           1             8    2     1       0.8399344108E-05       8    2    1         0.2181231907E-03      0.9721354742E-03

    ------------------------------------------------
       NWT REQUIRED            9 OUTER ITERATIONS 
       AND A TOTAL OF         14 INNER ITERATIONS.
    ------------------------------------------------

 NO OUTPUT CONTROL FOR STRESS PERIOD   24   TIME STEP   26
 
 SOLVING FOR HEAD 
                                                   Max.-Head-Change                         Max.-Flux-Residual
  Residual-Control   Outer-Iter.   Inner-Iter.     Column Row Layer    Maximum-Head-Change  Column Row Layer    Maximum-Flux-Residual          L2-NORM 
          0                 1           2             3   13     1       0.6834539927E-02       3   13    1         0.3610846082E+00      0.1724293801E+01
          0                 2           2             8    2     1       0.2265009297E-02       7    6    1         0.6630978683E-01      0.3835132161E+00
          0                 3           2             8    2     1       0.1018073794E-02       8    2    1         0.2643834143E-01      0.1299778859E+00
          0                 4           2             8    2     1       0.4576023224E-03       8    2    1         0.1188347433E-01      0.5481845461E-01
          0                 5           2             8    2     1       0.2056822765E-03       8    2    1         0.5341366070E-02      0.2428157076E-01
          0                 6           1             8    2     1       0.9244963618E-04       8    2    1         0.2400827403E-02      0.1084599345E-01
          0                 7           1             8    2     1       0.4155403737E-04       8    2    1         0.1079118701E-02      0.4851929947E-02
          0                 8           1             8    2     1       0.1867759353E-04       8    2    1         0.4850395775E-03      0.2171324136E-02
          0                 9           1             8    2     1       0.8395146619E-05       8    2    1         0.2180142157E-03      0.9718823570E-03

    ------------------------------------------------
       NWT REQUIRED            9 OUTER ITERATIONS 
       AND A TOTAL OF         14 INNER ITERATIONS.
    ------------------------------------------------

 NO OUTPUT CONTROL FOR STRESS PERIOD   24   TIME STEP   27
 
 SOLVING FOR HEAD 
                                                   Max.-Head-Change                         Max.-Flux-Residual
  Residual-Control   Outer-Iter.   Inner-Iter.     Column Row Layer    Maximum-Head-Change  Column Row Layer    Maximum-Flux-Residual          L2-NORM 
          0                 1           2             3   13     1       0.6734936772E-02       3   13    1         0.3557675391E+00      0.1721586243E+01
          0                 2           2             8    2     1       0.2263881511E-02       7    6    1         0.6607137968E-01      0.3831480289E+00
          0                 3           2             8    2     1       0.1017566658E-02       8    2    1         0.2642517627E-01      0.1299099950E+00
          0                 4           2             8    2     1       0.4573742805E-03       8    2    1         0.1187755433E-01      0.5479723103E-01
          0                 5           2             8    2     1       0.2055797350E-03       8    2    1         0.5338704048E-02      0.2427280127E-01
          0                 6           1             8    2     1       0.9240352821E-04       8    2    1         0.2399630404E-02      0.1084208649E-01
          0                 7           1             8    2     1       0.4153330479E-04       8    2    1         0.1078580467E-02      0.4850155321E-02
          0                 8           1             8    2     1       0.1866827164E-04       8    2    1         0.4847975672E-03      0.2170533494E-02
          0                 9           1             8    2     1       0.8390955009E-05       8    2    1         0.2179053972E-03      0.9715162052E-03

    ------------------------------------------------
       NWT REQUIRED            9 OUTER ITERATIONS 
       AND A TOTAL OF         14 INNER ITERATIONS.
    ------------------------------------------------

 NO OUTPUT CONTROL FOR STRESS PERIOD   24   TIME STEP   28
 
 SOLVING FOR HEAD 
                                                   Max.-Head-Change                         Max.-Flux-Residual
  Residual-Control   Outer-Iter.   Inner-Iter.     Column Row Layer    Maximum-Head-Change  Column Row Layer    Maximum-Flux-Residual          L2-NORM 
          0                 1           2             3   13     1       0.6637932794E-02       3   13    1         0.3505897237E+00      0.1719727502E+01
          0                 2           2             8    2     1       0.2262755476E-02       7    6    1         0.6582957784E-01      0.3829672530E+00
          0                 3           2             8    2     1       0.1017060322E-02       8    2    1         0.2641203160E-01      0.1298833854E+00
          0                 4           2             8    2     1       0.4571466038E-03       8    2    1         0.1187164368E-01      0.5478867285E-01
          0                 5           2             8    2     1       0.2054773604E-03       8    2    1         0.5336046298E-02      0.2426891024E-01
          0                 6           1             8    2     1       0.9235749615E-04       8    2    1         0.2398435349E-02      0.1084021383E-01
          0                 7           1             8    2     1       0.4151260736E-04       8    2    1         0.1078043120E-02      0.4849260243E-02
          0                 8           1             8    2     1       0.1865896488E-04       8    2    1         0.4845559512E-03      0.2170090124E-02
          0                 9           1             8    2     1       0.8386770901E-05       8    2    1         0.2177967623E-03      0.9713128599E-03

    ------------------------------------------------
       NWT REQUIRED            9 OUTER ITERATIONS 
       AND A TOTAL OF         14 INNER ITERATIONS.
    ------------------------------------------------

 NO OUTPUT CONTROL FOR STRESS PERIOD   24   TIME STEP   29
 
 SOLVING FOR HEAD 
                                                   Max.-Head-Change                         Max.-Flux-Residual
  Residual-Control   Outer-Iter.   Inner-Iter.     Column Row Layer    Maximum-Head-Change  Column Row Layer    Maximum-Flux-Residual          L2-NORM 
          0                 1           2             3   13     1       0.6543529506E-02       3   13    1         0.3455512271E+00      0.1717445757E+01
          0                 2           2             8    2     1       0.2261610568E-02       7    6    1         0.6558654665E-01      0.3826878193E+00
          0                 3           2             8    2     1       0.1016545534E-02       8    2    1         0.2639866681E-01      0.1298412155E+00
          0                 4           2             8    2     1       0.4569151415E-03       8    2    1         0.1186563445E-01      0.5477621248E-01
          0                 5           2             8    2     1       0.2053732900E-03       8    2    1         0.5333344391E-02      0.2426348445E-01
          0                 6           1             8    2     1       0.9231070462E-04       8    2    1         0.2397220521E-02      0.1083766432E-01
          0                 7           1             8    2     1       0.4149156927E-04       8    2    1         0.1077496917E-02      0.4848060651E-02
          0                 8           1             8    2     1       0.1864950631E-04       8    2    1         0.4843103778E-03      0.2169539457E-02
          0                 9           1             8    2     1       0.8382518513E-05       8    2    1         0.2176863535E-03      0.9710482339E-03

    ------------------------------------------------
       NWT REQUIRED            9 OUTER ITERATIONS 
       AND A TOTAL OF         14 INNER ITERATIONS.
    ------------------------------------------------

 NO OUTPUT CONTROL FOR STRESS PERIOD   24   TIME STEP   30



 STREAM LISTING     PERIOD     24   STEP       30

 LAYER ROW COL. STREAM  RCH.  FLOW INTO     FLOW TO   FLOW OUT OF   OVRLND.     DIRECT     STREAM       STREAM     STREAM     STREAM   STREAMBED  STREAMBED
                SEG.NO.  NO.  STRM. RCH.    AQUIFER    STRM. RCH.    RUNOFF     PRECIP       ET          HEAD       DEPTH      WIDTH   CONDCTNC.   GRADIENT

   1    1    1     1     1    3.5000E+00  8.3255E-10   3.5000E+00  0.000E+00  0.000E+00  0.000E+00  1.09371E+03  6.654E-01  5.047E+00  2.271E-10  1.222E+00
   1    2    2     1     2    3.5000E+00  1.2916E-09   3.5000E+00  0.000E+00  0.000E+00  0.000E+00  1.08872E+03  6.639E-01  5.036E+00  3.525E-10  1.221E+00
   1    3    3     1     3    3.5000E+00  1.1083E-09   3.5000E+00  0.000E+00  0.000E+00  0.000E+00  1.08308E+03  6.645E-01  5.041E+00  3.024E-10  1.222E+00
   1    3    4     1     4    3.5000E+00  1.0257E-09   3.5000E+00  0.000E+00  0.000E+00  0.000E+00  1.07807E+03  6.648E-01  5.043E+00  2.799E-10  1.222E+00
   1    4    5     2     1    1.5000E+00  2.5053E-01   1.2495E+00  0.000E+00  0.000E+00  0.000E+00  1.07215E+03  2.119E-01  1.200E+01  7.800E-02  1.071E+00
   1    5    6     2     2    1.2495E+00  1.9144E-01   1.0580E+00  0.000E+00  0.000E+00  0.000E+00  1.06670E+03  1.907E-01  1.200E+01  6.000E-02  1.064E+00
   1    6    6     2     3    1.0580E+00  1.9027E-01   8.6776E-01  0.000E+00  0.000E+00  0.000E+00  1.06196E+03  1.711E-01  1.200E+01  6.000E-02  1.057E+00
   1    7    6     2     4    8.6776E-01  1.8900E-01   6.7876E-01  0.000E+00  0.000E+00  0.000E+00  1.05723E+03  1.500E-01  1.200E+01  6.000E-02  1.050E+00
   1    8    6     2     5    6.7876E-01  1.8761E-01   4.9115E-01  0.000E+00  0.000E+00  0.000E+00  1.05249E+03  1.269E-01  1.200E+01  6.000E-02  1.042E+00
   1    3    5     3     1    2.0000E+00  2.8252E-01   1.7175E+00  0.000E+00  0.000E+00  0.000E+00  1.07555E+03  1.909E+00  9.636E+00  7.227E-02  1.955E+00
   1    3    6     3     2    1.7175E+00  2.4905E-01   1.4684E+00  0.000E+00  0.000E+00  0.000E+00  1.07264E+03  1.727E+00  8.909E+00  6.682E-02  1.864E+00
   1    3    7     3     3    1.4684E+00  1.9718E-01   1.2712E+00  0.000E+00  0.000E+00  0.000E+00  1.06987E+03  1.555E+00  8.218E+00  5.547E-02  1.777E+00
   1    4    8     3     4    1.2712E+00  2.2567E-01   1.0456E+00  0.000E+00  0.000E+00  0.000E+00  1.06682E+03  1.364E+00  7.455E+00  6.709E-02  1.682E+00
   1    5    8     3     5    1.0456E+00  1.5790E-01   8.8768E-01  0.000E+00  0.000E+00  0.000E+00  1.06362E+03  1.164E+00  6.655E+00  4.991E-02  1.582E+00
   1    6    8     3     6    8.8768E-01  5.5980E-02   8.3170E-01  0.000E+00  0.000E+00  0.000E+00  1.06158E+03  1.036E+00  6.145E+00  1.844E-02  1.518E+00
   1    5   10     4     1    1.0000E+01  9.0919E-02   9.9091E+00  0.000E+00  0.000E+00  0.000E+00  1.07836E+03  6.368E-01  1.000E+01  2.500E-02  1.212E+00
   1    5    9     4     2    9.9091E+00  1.8158E-01   9.7275E+00  0.000E+00  0.000E+00  0.000E+00  1.07154E+03  6.315E-01  1.000E+01  5.000E-02  1.211E+00
   1    6    8     4     3    9.7275E+00  1.2689E-01   9.6006E+00  0.000E+00  0.000E+00  0.000E+00  1.06381E+03  6.256E-01  1.000E+01  3.500E-02  1.209E+00
   1    6    8     5     1    1.0432E+01  2.2686E-09   1.0432E+01  0.000E+00  0.000E+00  0.000E+00  1.05868E+03  6.790E-01  1.542E+01  6.166E-10  1.226E+00
   1    7    7     5     2    1.0432E+01  2.8306E-09   1.0432E+01  0.000E+00  0.000E+00  0.000E+00  1.05418E+03  6.784E-01  1.539E+01  7.695E-10  1.226E+00
   1    8    7     5     3    1.0432E+01  1.9868E-09   1.0432E+01  0.000E+00  0.000E+00  0.000E+00  1.04993E+03  6.794E-01  1.543E+01  5.400E-10  1.226E+00
   1    8    6     5     4    1.0432E+01  1.4217E-09   1.0432E+01  0.000E+00  0.000E+00  0.000E+00  1.04693E+03  6.800E-01  1.545E+01  3.863E-10  1.227E+00
   1    9    6     6     1    1.0923E+01  2.2430E-01   1.0699E+01  0.000E+00  0.000E+00  0.000E+00  1.04347E+03  7.384E-01  1.200E+01  6.000E-02  1.246E+00
   1   10    7     6     2    1.0699E+01  2.2375E-01   1.0475E+01  0.000E+00  0.000E+00  0.000E+00  1.03891E+03  7.292E-01  1.200E+01  6.000E-02  1.243E+00
   1   11    7     6     3    1.0475E+01  2.2320E-01   1.0252E+01  0.000E+00  0.000E+00  0.000E+00  1.03436E+03  7.199E-01  1.200E+01  6.000E-02  1.240E+00
   1   12    7     6     4    1.0252E+01  2.2264E-01   1.0030E+01  0.000E+00  0.000E+00  0.000E+00  1.02980E+03  7.106E-01  1.200E+01  6.000E-02  1.237E+00
   1   13    7     6     5    1.0030E+01  8.8896E-02   9.9407E+00  0.000E+00  0.000E+00  0.000E+00  1.02661E+03  7.040E-01  1.200E+01  2.400E-02  1.235E+00
   1   14    9     7     1    1.5000E+02  2.9539E-08   1.5000E+02  0.000E+00  0.000E+00  0.000E+00  1.03986E+03  2.283E+00  5.528E+01  5.591E-09  1.761E+00
   1   13    8     7     2    1.5000E+02  3.2486E-14   1.5000E+02  0.000E+00  0.000E+00  0.000E+00  1.03478E+03  2.283E+00  5.527E+01  6.150E-15  1.761E+00
   1   13    7     7     3    1.5000E+02  2.9539E-08   1.5000E+02  0.000E+00  0.000E+00  0.000E+00  1.02970E+03  2.283E+00  5.528E+01  5.591E-09  1.761E+00
   1   13    6     8     1    1.5994E+02  2.4983E-13   1.5994E+02  0.000E+00  0.000E+00  0.000E+00  1.02475E+03  2.877E+00  4.172E+01  4.251E-14  1.959E+00
   1   13    5     8     2    1.5994E+02  2.4983E-14   1.5994E+02  0.000E+00  0.000E+00  0.000E+00  1.01850E+03  2.877E+00  4.172E+01  4.251E-15  1.959E+00
   1   13    4     8     3    1.5994E+02  1.5049E-31   1.5994E+02  0.000E+00  0.000E+00  0.000E+00  1.01226E+03  2.885E+00  4.184E+01  4.264E-32  1.177E+00
   1   13    3     8     4    1.5994E+02  8.9904E-06   1.5994E+02  0.000E+00  0.000E+00  0.000E+00  1.00601E+03  2.885E+00  4.183E+01  4.263E-05  7.030E-02
   1   13    2     8     5    1.5994E+02 -1.8113E+00   1.6175E+02  0.000E+00  0.000E+00  0.000E+00  9.99767E+02  2.892E+00  4.193E+01  4.273E+00 -1.413E-01
   1   13    1     8     6    1.6175E+02 -1.8220E+00   1.6357E+02  0.000E+00  0.000E+00  0.000E+00  9.94779E+02  2.904E+00  4.210E+01  2.574E+00 -2.359E-01
   1    6    8     9     1    0.0000E+00  0.0000E+00   0.0000E+00  0.000E+00  0.000E+00  0.000E+00  1.07850E+03  0.000E+00  4.000E+00  0.000E+00  1.000E+00





UNSATURATED ZONE PACKAGE VOLUMETRIC BUDGET FOR  TIME STEP    30 STRESS PERIOD   24
  ------------------------------------------------------------------------------



     CUMULATIVE VOLUMES      L**3       RATES FOR THIS TIME STEP      L**3/T
     ------------------                 ------------------------

           IN:                                      IN:
           ---                                      ---
        INFILTRATION =   135399134.6154          INFILTRATION =           0.8475

          OUT:                                     OUT:
          ----                                     ----
              UZF ET =   618685647.3590                UZF ET =           0.0096
        UZF RECHARGE =  1561220186.4338          UZF RECHARGE =          22.9220

            IN - OUT = -2044506699.1774              IN - OUT =         -22.0841

          STORAGE:                                 STORAGE:
          --------                                 --------
      STORAGE CHANGE = -2044480967.5577        STORAGE CHANGE =         -22.0841

 PERCENT DISCREPANCY IS DIFFERENCE BETWEEN IN-OUT MINUS CHANGE IN STORAGE
 DIVIDED BY THE AVERAGE OF IN AND OUT TIMES 100

 PERCENT DISCREPANCY =          -0.00     PERCENT DISCREPANCY =           0.00






1
  VOLUMETRIC BUDGET FOR ENTIRE MODEL AT END OF TIME STEP   30, STRESS PERIOD  24
  ------------------------------------------------------------------------------

     CUMULATIVE VOLUMES      L**3       RATES FOR THIS TIME STEP      L**3/T
     ------------------                 ------------------------

           IN:                                      IN:
           ---                                      ---
             STORAGE =    48609464.0000               STORAGE =       2.4728E-02
       CONSTANT HEAD =           0.0000         CONSTANT HEAD =           0.0000
               WELLS =           0.0000                 WELLS =           0.0000
     HEAD DEP BOUNDS =    64313996.0000       HEAD DEP BOUNDS =           0.9713
      STREAM LEAKAGE =   247092064.0000        STREAM LEAKAGE =           3.5593
        UZF RECHARGE =  1561219584.0000          UZF RECHARGE =          22.9220
               GW ET =           0.0000                 GW ET =           0.0000
     SURFACE LEAKAGE =           0.0000       SURFACE LEAKAGE =           0.0000

            TOTAL IN =  1921235072.0000              TOTAL IN =          27.4774

          OUT:                                     OUT:
          ----                                     ----
             STORAGE =  1651082752.0000               STORAGE =          23.5480
       CONSTANT HEAD =           0.0000         CONSTANT HEAD =           0.0000
               WELLS =    16979570.0000                 WELLS =           0.0000
     HEAD DEP BOUNDS =    17850854.0000       HEAD DEP BOUNDS =           0.2845
      STREAM LEAKAGE =   155337136.0000        STREAM LEAKAGE =           3.6333
        UZF RECHARGE =           0.0000          UZF RECHARGE =           0.0000
               GW ET =    79791480.0000                 GW ET =       8.5303E-03
     SURFACE LEAKAGE =           0.0000       SURFACE LEAKAGE =           0.0000

           TOTAL OUT =  1921041792.0000             TOTAL OUT =          27.4743

            IN - OUT =      193280.0000              IN - OUT =       3.0556E-03

 PERCENT DISCREPANCY =           0.01     PERCENT DISCREPANCY =           0.01






         TIME SUMMARY AT END OF TIME STEP   30 IN STRESS PERIOD   24
                    SECONDS     MINUTES      HOURS       DAYS        YEARS
                    -----------------------------------------------------------
   TIME STEP LENGTH  87600.      1460.0      24.333      1.0139     2.77588E-03
 STRESS PERIOD TIME 2.62800E+06  43800.      730.00      30.417     8.32763E-02
         TOTAL TIME 6.30720E+07 1.05120E+06  17520.      730.00      1.9986    
1
1
                            STRESS PERIOD NO.   25, LENGTH =   2628000.    
                            -----------------------------------------------

                              NUMBER OF TIME STEPS =    30

                               MULTIPLIER FOR DELT =     1.000

                            INITIAL TIME STEP SIZE =   87600.00    

 WELL NO.  LAYER   ROW   COL   STRESS RATE         
 --------------------------------------------------
      1      1      6      4       0.000    
      2      1      6      7       0.000    
      3      1      7      4       0.000    
      4      1      7      5       0.000    
      5      1      8      4       0.000    
      6      1      8      5       0.000    
      7      1      9      4       0.000    
      8      1      9      5       0.000    
      9      1     10      4       0.000    
     10      1     10      5       0.000    

     10 WELLS

 REUSING NON-PARAMETER GHB CELLS FROM LAST STRESS PERIOD

      2 GHB CELLS

 REUSING STREAM SEGMENT DATA FROM LAST STRESS PERIOD



            AREAL INFILTRATION RATE
 READING ON UNIT   19 WITH FORMAT: (10F4.0)            

            1           2           3           4           5           6           7           8           9          10
 ........................................................................................................................
   1   1.0000E-10  2.0000E-10   0.000       0.000       0.000       0.000       0.000       0.000       0.000       0.000    
   2   2.0000E-10  1.0000E-10  2.0000E-10   0.000       0.000      8.0000E-10  8.0000E-10  5.0000E-10   0.000       0.000    
   3    0.000      5.0000E-10  1.0000E-10  1.0000E-10  8.0000E-10  8.0000E-10  5.0000E-10  5.0000E-10   0.000       0.000    
   4   8.0000E-10  5.0000E-10  1.0000E-10  1.0000E-10  1.0000E-10  1.0000E-10  1.0000E-10  1.0000E-10  2.0000E-10   0.000    
   5   8.0000E-10  5.0000E-10  1.0000E-10  1.0000E-10  1.0000E-10  1.0000E-10  1.0000E-10  1.0000E-10  1.0000E-10  1.0000E-10
   6   8.0000E-10  5.0000E-10  5.0000E-10  2.0000E-10  2.0000E-10  1.0000E-10  1.0000E-10  1.0000E-10  1.0000E-10  5.0000E-10
   7   8.0000E-10  5.0000E-10  5.0000E-10  2.0000E-10  2.0000E-10  1.0000E-10  1.0000E-10  2.0000E-10  2.0000E-10   0.000    
   8    0.000      5.0000E-10  5.0000E-10  2.0000E-10  2.0000E-10  1.0000E-10  1.0000E-10  2.0000E-10  5.0000E-10   0.000    
   9    0.000      5.0000E-10  5.0000E-10  2.0000E-10  2.0000E-10  1.0000E-10  1.0000E-10  2.0000E-10  5.0000E-10   0.000    
  10    0.000      5.0000E-10  5.0000E-10  2.0000E-10  2.0000E-10  1.0000E-10  1.0000E-10  2.0000E-10  5.0000E-10  8.0000E-10
  11    0.000      1.0000E-10  1.0000E-10  1.0000E-10  1.0000E-10  1.0000E-10  1.0000E-10  2.0000E-10  5.0000E-10   0.000    
  12   1.0000E-10  1.0000E-10  1.0000E-10  1.0000E-10  1.0000E-10  1.0000E-10  1.0000E-10  1.0000E-10  2.0000E-10   0.000    
  13   1.0000E-10  1.0000E-10  2.0000E-10  2.0000E-10  2.0000E-10  2.0000E-10  2.0000E-10  1.0000E-10  1.0000E-10   0.000    
  14    0.000      2.0000E-10  5.0000E-10  5.0000E-10  5.0000E-10  5.0000E-10  5.0000E-10  2.0000E-10  1.0000E-10   0.000    
  15    0.000       0.000      8.0000E-10  8.0000E-10  8.0000E-10  8.0000E-10   0.000       0.000       0.000       0.000    

                  ET RATE =  1.000000E-10

 USING ET EXTINCTION DEPTH FROM PREVIOUS STRESS PERIOD. CURRENT PERIOD IS:      25

 USING EXTINCTION WATER CONTENT FROM PREVIOUS STRESS PERIOD. CURRENT PERIOD IS:      25
 
 SOLVING FOR HEAD 
                                                   Max.-Head-Change                         Max.-Flux-Residual
  Residual-Control   Outer-Iter.   Inner-Iter.     Column Row Layer    Maximum-Head-Change  Column Row Layer    Maximum-Flux-Residual          L2-NORM 
          0                 1           2             7    5     1       0.6473040695E-02       3   13    1         0.3406476135E+00      0.1715299628E+01
          0                 2           2             8    2     1       0.2260488344E-02       7    6    1         0.6534184126E-01      0.3824522346E+00
          0                 3           2             8    2     1       0.1016040956E-02       8    2    1         0.2638556684E-01      0.1297988894E+00
          0                 4           2             8    2     1       0.4566882742E-03       8    2    1         0.1185974441E-01      0.5476139494E-01
          0                 5           2             8    2     1       0.2052712880E-03       8    2    1         0.5330696132E-02      0.2425698849E-01
          0                 6           1             8    2     1       0.9226484389E-04       8    2    1         0.2396029834E-02      0.1083470362E-01
          0                 7           1             8    2     1       0.4147095024E-04       8    2    1         0.1076961580E-02      0.4846705447E-02
          0                 8           1             8    2     1       0.1864023657E-04       8    2    1         0.4840696921E-03      0.2168913895E-02
          0                 9           1             8    2     1       0.8378350412E-05       8    2    1         0.2175781369E-03      0.9707810017E-03

    ------------------------------------------------
       NWT REQUIRED            9 OUTER ITERATIONS 
       AND A TOTAL OF         14 INNER ITERATIONS.
    ------------------------------------------------

 NO OUTPUT CONTROL FOR STRESS PERIOD   25   TIME STEP    1
 
 SOLVING FOR HEAD 
                                                   Max.-Head-Change                         Max.-Flux-Residual
  Residual-Control   Outer-Iter.   Inner-Iter.     Column Row Layer    Maximum-Head-Change  Column Row Layer    Maximum-Flux-Residual          L2-NORM 
          0                 1           2             7    5     1       0.6443265417E-02       7    5    1         0.3365195323E+00      0.1713637483E+01
          0                 2           2             8    2     1       0.2259367939E-02       7    6    1         0.6509739586E-01      0.3822516134E+00
          0                 3           2             8    2     1       0.1015537176E-02       8    2    1         0.2637248802E-01      0.1297500508E+00
          0                 4           2             8    2     1       0.4564617569E-03       8    2    1         0.1185386365E-01      0.5474278141E-01
          0                 5           2             8    2     1       0.2051694395E-03       8    2    1         0.5328051949E-02      0.2424897731E-01
          0                 6           1             8    2     1       0.9221905055E-04       8    2    1         0.2394840939E-02      0.1083114206E-01
          0                 7           1             8    2     1       0.4145036097E-04       8    2    1         0.1076427029E-02      0.4845106223E-02
          0                 8           1             8    2     1       0.1863097921E-04       8    2    1         0.4838293485E-03      0.2168189612E-02
          0                 9           1             8    2     1       0.8374188440E-05       8    2    1         0.2174700785E-03      0.9704748230E-03

    ------------------------------------------------
       NWT REQUIRED            9 OUTER ITERATIONS 
       AND A TOTAL OF         14 INNER ITERATIONS.
    ------------------------------------------------

 NO OUTPUT CONTROL FOR STRESS PERIOD   25   TIME STEP    2
 
 SOLVING FOR HEAD 
                                                   Max.-Head-Change                         Max.-Flux-Residual
  Residual-Control   Outer-Iter.   Inner-Iter.     Column Row Layer    Maximum-Head-Change  Column Row Layer    Maximum-Flux-Residual          L2-NORM 
          0                 1           2             7    5     1       0.6414583183E-02       7    5    1         0.3349885578E+00      0.1711957612E+01
          0                 2           2             8    2     1       0.2258228776E-02       7    6    1         0.6485264722E-01      0.3819955943E+00
          0                 3           2             8    2     1       0.1015025005E-02       8    2    1         0.2635919044E-01      0.1296701895E+00
          0                 4           2             8    2     1       0.4562314868E-03       8    2    1         0.1184788504E-01      0.5470960994E-01
          0                 5           2             8    2     1       0.2050659122E-03       8    2    1         0.5325363991E-02      0.2423448180E-01
          0                 6           1             8    2     1       0.9217250614E-04       8    2    1         0.2393632459E-02      0.1082476580E-01
          0                 7           1             8    2     1       0.4142943580E-04       8    2    1         0.1075883715E-02      0.4842305188E-02
          0                 8           1             8    2     1       0.1862157141E-04       8    2    1         0.4835850828E-03      0.2166961896E-02
          0                 9           1             8    2     1       0.8369959062E-05       8    2    1         0.2173602656E-03      0.9699075979E-03

    ------------------------------------------------
       NWT REQUIRED            9 OUTER ITERATIONS 
       AND A TOTAL OF         14 INNER ITERATIONS.
    ------------------------------------------------

 NO OUTPUT CONTROL FOR STRESS PERIOD   25   TIME STEP    3
 
 SOLVING FOR HEAD 
                                                   Max.-Head-Change                         Max.-Flux-Residual
  Residual-Control   Outer-Iter.   Inner-Iter.     Column Row Layer    Maximum-Head-Change  Column Row Layer    Maximum-Flux-Residual          L2-NORM 
          0                 1           2             7    5     1       0.6386810025E-02       7    5    1         0.3335070279E+00      0.1710178832E+01
          0                 2           2             8    2     1       0.2257091582E-02       7    6    1         0.6460933555E-01      0.3817507624E+00
          0                 3           2             8    2     1       0.1014513711E-02       8    2    1         0.2634591581E-01      0.1296133566E+00
          0                 4           2             8    2     1       0.4560016068E-03       8    2    1         0.1184191664E-01      0.5468925484E-01
          0                 5           2             8    2     1       0.2049625584E-03       8    2    1         0.5322680577E-02      0.2422610498E-01
          0                 6           1             8    2     1       0.9212603901E-04       8    2    1         0.2392426005E-02      0.1082119969E-01
          0                 7           1             8    2     1       0.4140854453E-04       8    2    1         0.1075341304E-02      0.4840773901E-02
          0                 8           1             8    2     1       0.1861217949E-04       8    2    1         0.4833412265E-03      0.2166308291E-02
          0                 9           1             8    2     1       0.8365736562E-05       8    2    1         0.2172506304E-03      0.9696167410E-03

    ------------------------------------------------
       NWT REQUIRED            9 OUTER ITERATIONS 
       AND A TOTAL OF         14 INNER ITERATIONS.
    ------------------------------------------------

 NO OUTPUT CONTROL FOR STRESS PERIOD   25   TIME STEP    4
 
 SOLVING FOR HEAD 
                                                   Max.-Head-Change                         Max.-Flux-Residual
  Residual-Control   Outer-Iter.   Inner-Iter.     Column Row Layer    Maximum-Head-Change  Column Row Layer    Maximum-Flux-Residual          L2-NORM 
          0                 1           2             7    5     1       0.6360009233E-02       7    5    1         0.3320783240E+00      0.1708581193E+01
          0                 2           2             8    2     1       0.2255977119E-02       7    6    1         0.6436673295E-01      0.3815872336E+00
          0                 3           2             8    2     1       0.1014012636E-02       8    2    1         0.2633290650E-01      0.1295888550E+00
          0                 4           2             8    2     1       0.4557763205E-03       8    2    1         0.1183606752E-01      0.5468150230E-01
          0                 5           2             8    2     1       0.2048612699E-03       8    2    1         0.5320050790E-02      0.2422262620E-01
          0                 6           1             8    2     1       0.9208050029E-04       8    2    1         0.2391243654E-02      0.1081953017E-01
          0                 7           1             8    2     1       0.4138807081E-04       8    2    1         0.1074809726E-02      0.4839969802E-02
          0                 8           1             8    2     1       0.1860297465E-04       8    2    1         0.4831022361E-03      0.2165911418E-02
          0                 9           1             8    2     1       0.8361598475E-05       8    2    1         0.2171431868E-03      0.9694349655E-03

    ------------------------------------------------
       NWT REQUIRED            9 OUTER ITERATIONS 
       AND A TOTAL OF         14 INNER ITERATIONS.
    ------------------------------------------------

 NO OUTPUT CONTROL FOR STRESS PERIOD   25   TIME STEP    5
 
 SOLVING FOR HEAD 
                                                   Max.-Head-Change                         Max.-Flux-Residual
  Residual-Control   Outer-Iter.   Inner-Iter.     Column Row Layer    Maximum-Head-Change  Column Row Layer    Maximum-Flux-Residual          L2-NORM 
          0                 1           2             7    5     1       0.6334124295E-02       7    5    1         0.3306993242E+00      0.1706993554E+01
          0                 2           2             8    2     1       0.2254844001E-02       7    6    1         0.6412646596E-01      0.3813966207E+00
          0                 3           2             8    2     1       0.1013503216E-02       8    2    1         0.2631967965E-01      0.1295498724E+00
          0                 4           2             8    2     1       0.4555473017E-03       8    2    1         0.1183012109E-01      0.5466712145E-01
          0                 5           2             8    2     1       0.2047583118E-03       8    2    1         0.5317377474E-02      0.2421616535E-01
          0                 6           1             8    2     1       0.9203421474E-04       8    2    1         0.2390041833E-02      0.1081653362E-01
          0                 7           1             8    2     1       0.4136726308E-04       8    2    1         0.1074269441E-02      0.4838579516E-02
          0                 8           1             8    2     1       0.1859362062E-04       8    2    1         0.4828593497E-03      0.2165269419E-02
          0                 9           1             8    2     1       0.8357393233E-05       8    2    1         0.2170339979E-03      0.9691394730E-03

    ------------------------------------------------
       NWT REQUIRED            9 OUTER ITERATIONS 
       AND A TOTAL OF         14 INNER ITERATIONS.
    ------------------------------------------------

 NO OUTPUT CONTROL FOR STRESS PERIOD   25   TIME STEP    6
 
 SOLVING FOR HEAD 
                                                   Max.-Head-Change                         Max.-Flux-Residual
  Residual-Control   Outer-Iter.   Inner-Iter.     Column Row Layer    Maximum-Head-Change  Column Row Layer    Maximum-Flux-Residual          L2-NORM 
          0                 1           2             7    5     1       0.6308868439E-02       7    5    1         0.3293544505E+00      0.1705524519E+01
          0                 2           2             8    2     1       0.2253712999E-02       7    6    1         0.6388876906E-01      0.3812295998E+00
          0                 3           2             8    2     1       0.1012994747E-02       8    2    1         0.2630647748E-01      0.1295142380E+00
          0                 4           2             8    2     1       0.4553187099E-03       8    2    1         0.1182418575E-01      0.5465370600E-01
          0                 5           2             8    2     1       0.2046555452E-03       8    2    1         0.5314709134E-02      0.2421024037E-01
          0                 6           1             8    2     1       0.9198801511E-04       8    2    1         0.2388842248E-02      0.1081384048E-01
          0                 7           1             8    2     1       0.4134649398E-04       8    2    1         0.1073730160E-02      0.4837347108E-02
          0                 8           1             8    2     1       0.1858428410E-04       8    2    1         0.4826169153E-03      0.2164710953E-02
          0                 9           1             8    2     1       0.8353196370E-05       8    2    1         0.2169250099E-03      0.9688858274E-03

    ------------------------------------------------
       NWT REQUIRED            9 OUTER ITERATIONS 
       AND A TOTAL OF         14 INNER ITERATIONS.
    ------------------------------------------------

 NO OUTPUT CONTROL FOR STRESS PERIOD   25   TIME STEP    7
 
 SOLVING FOR HEAD 
                                                   Max.-Head-Change                         Max.-Flux-Residual
  Residual-Control   Outer-Iter.   Inner-Iter.     Column Row Layer    Maximum-Head-Change  Column Row Layer    Maximum-Flux-Residual          L2-NORM 
          0                 1           2             7    5     1       0.6284557055E-02       7    5    1         0.3280608124E+00      0.1704171105E+01
          0                 2           2             8    2     1       0.2252584150E-02       7    6    1         0.6365280705E-01      0.3810359483E+00
          0                 3           2             8    2     1       0.1012487256E-02       8    2    1         0.2629330049E-01      0.1294626633E+00
          0                 4           2             8    2     1       0.4550905622E-03       8    2    1         0.1181826185E-01      0.5463371247E-01
          0                 5           2             8    2     1       0.2045529801E-03       8    2    1         0.5312045992E-02      0.2420162057E-01
          0                 6           1             8    2     1       0.9194190738E-04       8    2    1         0.2387645027E-02      0.1081002767E-01
          0                 7           1             8    2     1       0.4132576653E-04       8    2    1         0.1073191949E-02      0.4835647079E-02
          0                 8           1             8    2     1       0.1857496622E-04       8    2    1         0.4823749642E-03      0.2163957869E-02
          0                 9           1             8    2     1       0.8349007260E-05       8    2    1         0.2168162428E-03      0.9685665263E-03

    ------------------------------------------------
       NWT REQUIRED            9 OUTER ITERATIONS 
       AND A TOTAL OF         14 INNER ITERATIONS.
    ------------------------------------------------

 NO OUTPUT CONTROL FOR STRESS PERIOD   25   TIME STEP    8
 
 SOLVING FOR HEAD 
                                                   Max.-Head-Change                         Max.-Flux-Residual
  Residual-Control   Outer-Iter.   Inner-Iter.     Column Row Layer    Maximum-Head-Change  Column Row Layer    Maximum-Flux-Residual          L2-NORM 
          0                 1           2             7    5     1       0.6260784048E-02       7    5    1         0.3267964167E+00      0.1702606969E+01
          0                 2           2             8    2     1       0.2251457404E-02       7    6    1         0.6341879318E-01      0.3807910737E+00
          0                 3           2             8    2     1       0.1011980700E-02       8    2    1         0.2628014802E-01      0.1293862867E+00
          0                 4           2             8    2     1       0.4548628307E-03       8    2    1         0.1181234885E-01      0.5460151084E-01
          0                 5           2             8    2     1       0.2044506008E-03       8    2    1         0.5309387702E-02      0.2418723983E-01
          0                 6           1             8    2     1       0.9189588170E-04       8    2    1         0.2386449956E-02      0.1080355376E-01
          0                 7           1             8    2     1       0.4130507534E-04       8    2    1         0.1072654696E-02      0.4832743169E-02
          0                 8           1             8    2     1       0.1856566459E-04       8    2    1         0.4821334437E-03      0.2162648278E-02
          0                 9           1             8    2     1       0.8344825903E-05       8    2    1         0.2167076700E-03      0.9679778298E-03

    ------------------------------------------------
       NWT REQUIRED            9 OUTER ITERATIONS 
       AND A TOTAL OF         14 INNER ITERATIONS.
    ------------------------------------------------

 NO OUTPUT CONTROL FOR STRESS PERIOD   25   TIME STEP    9
 
 SOLVING FOR HEAD 
                                                   Max.-Head-Change                         Max.-Flux-Residual
  Residual-Control   Outer-Iter.   Inner-Iter.     Column Row Layer    Maximum-Head-Change  Column Row Layer    Maximum-Flux-Residual          L2-NORM 
          0                 1           2             7    5     1       0.6237875127E-02       7    5    1         0.3255786052E+00      0.1701227337E+01
          0                 2           2             8    2     1       0.2250332932E-02       7    6    1         0.6318823922E-01      0.3805932284E+00
          0                 3           2             8    2     1       0.1011475207E-02       8    2    1         0.2626702227E-01      0.1293325140E+00
          0                 4           2             8    2     1       0.4546355955E-03       8    2    1         0.1180644835E-01      0.5458049830E-01
          0                 5           2             8    2     1       0.2043484520E-03       8    2    1         0.5306735235E-02      0.2417821705E-01
          0                 6           1             8    2     1       0.9184996369E-04       8    2    1         0.2385257605E-02      0.1079959198E-01
          0                 7           1             8    2     1       0.4128443455E-04       8    2    1         0.1072118708E-02      0.4830985772E-02
          0                 8           1             8    2     1       0.1855638597E-04       8    2    1         0.4818925055E-03      0.2161867925E-02
          0                 9           1             8    2     1       0.8340655302E-05       8    2    1         0.2165993681E-03      0.9676150531E-03

    ------------------------------------------------
       NWT REQUIRED            9 OUTER ITERATIONS 
       AND A TOTAL OF         14 INNER ITERATIONS.
    ------------------------------------------------

 NO OUTPUT CONTROL FOR STRESS PERIOD   25   TIME STEP   10
 
 SOLVING FOR HEAD 
                                                   Max.-Head-Change                         Max.-Flux-Residual
  Residual-Control   Outer-Iter.   Inner-Iter.     Column Row Layer    Maximum-Head-Change  Column Row Layer    Maximum-Flux-Residual          L2-NORM 
          0                 1           2             7    5     1       0.6215431026E-02       7    5    1         0.3243860148E+00      0.1699924269E+01
          0                 2           2             8    2     1       0.2249210622E-02       7    6    1         0.6296121382E-01      0.3804356462E+00
          0                 3           2             8    2     1       0.1010970665E-02       8    2    1         0.2625392166E-01      0.1293029752E+00
          0                 4           2             8    2     1       0.4544087774E-03       8    2    1         0.1180055889E-01      0.5456937036E-01
          0                 5           2             8    2     1       0.2042464869E-03       8    2    1         0.5304087628E-02      0.2417305588E-01
          0                 6           1             8    2     1       0.9180412609E-04       8    2    1         0.2384067382E-02      0.1079712634E-01
          0                 7           1             8    2     1       0.4126382865E-04       8    2    1         0.1071583654E-02      0.4829817519E-02
          0                 8           1             8    2     1       0.1854712323E-04       8    2    1         0.4816519832E-03      0.2161316331E-02
          0                 9           1             8    2     1       0.8336491203E-05       8    2    1         0.2164912457E-03      0.9673573024E-03

    ------------------------------------------------
       NWT REQUIRED            9 OUTER ITERATIONS 
       AND A TOTAL OF         14 INNER ITERATIONS.
    ------------------------------------------------

 NO OUTPUT CONTROL FOR STRESS PERIOD   25   TIME STEP   11
 
 SOLVING FOR HEAD 
                                                   Max.-Head-Change                         Max.-Flux-Residual
  Residual-Control   Outer-Iter.   Inner-Iter.     Column Row Layer    Maximum-Head-Change  Column Row Layer    Maximum-Flux-Residual          L2-NORM 
          0                 1           2             7    5     1       0.6193782878E-02       7    5    1         0.3232362623E+00      0.1697833980E+01
          0                 2           2             8    2     1       0.2248090603E-02       7    6    1         0.6273669392E-01      0.3801622993E+00
          0                 3           2             8    2     1       0.1010467182E-02       8    2    1         0.2624084793E-01      0.1292567688E+00
          0                 4           2             8    2     1       0.4541824489E-03       8    2    1         0.1179468186E-01      0.5455507845E-01
          0                 5           2             8    2     1       0.2041447475E-03       8    2    1         0.5301445755E-02      0.2416700320E-01
          0                 6           1             8    2     1       0.9175839253E-04       8    2    1         0.2382879807E-02      0.1079438578E-01
          0                 7           1             8    2     1       0.4124327103E-04       8    2    1         0.1071049822E-02      0.4828563672E-02
          0                 8           1             8    2     1       0.1853788238E-04       8    2    1         0.4814120189E-03      0.2160745517E-02
          0                 9           1             8    2     1       0.8332337484E-05       8    2    1         0.2163833791E-03      0.9670969017E-03

    ------------------------------------------------
       NWT REQUIRED            9 OUTER ITERATIONS 
       AND A TOTAL OF         14 INNER ITERATIONS.
    ------------------------------------------------

 NO OUTPUT CONTROL FOR STRESS PERIOD   25   TIME STEP   12
 
 SOLVING FOR HEAD 
                                                   Max.-Head-Change                         Max.-Flux-Residual
  Residual-Control   Outer-Iter.   Inner-Iter.     Column Row Layer    Maximum-Head-Change  Column Row Layer    Maximum-Flux-Residual          L2-NORM 
          0                 1           2             7    5     1       0.6172653258E-02       7    5    1         0.3221146310E+00      0.1696459104E+01
          0                 2           2             8    2     1       0.2246972811E-02       7    6    1         0.6251478477E-01      0.3798820628E+00
          0                 3           2             8    2     1       0.1009964690E-02       8    2    1         0.2622780016E-01      0.1291606162E+00
          0                 4           2             8    2     1       0.4539565605E-03       8    2    1         0.1178881636E-01      0.5451414362E-01
          0                 5           2             8    2     1       0.2040432038E-03       8    2    1         0.5298809008E-02      0.2414840403E-01
          0                 6           1             8    2     1       0.9171274577E-04       8    2    1         0.2381694508E-02      0.1078583724E-01
          0                 7           1             8    2     1       0.4122275167E-04       8    2    1         0.1070517000E-02      0.4824639743E-02
          0                 8           1             8    2     1       0.1852865866E-04       8    2    1         0.4811725067E-03      0.2158954292E-02
          0                 9           1             8    2     1       0.8328191268E-05       8    2    1         0.2162757160E-03      0.9662918344E-03

    ------------------------------------------------
       NWT REQUIRED            9 OUTER ITERATIONS 
       AND A TOTAL OF         14 INNER ITERATIONS.
    ------------------------------------------------

 NO OUTPUT CONTROL FOR STRESS PERIOD   25   TIME STEP   13
 
 SOLVING FOR HEAD 
                                                   Max.-Head-Change                         Max.-Flux-Residual
  Residual-Control   Outer-Iter.   Inner-Iter.     Column Row Layer    Maximum-Head-Change  Column Row Layer    Maximum-Flux-Residual          L2-NORM 
          0                 1           2             7    5     1       0.6152016874E-02       7    5    1         0.3210195034E+00      0.1694284968E+01
          0                 2           2             8    2     1       0.2245836666E-02       7    6    1         0.6229801272E-01      0.3795475205E+00
          0                 3           2             8    2     1       0.1009453995E-02       8    2    1         0.2621453837E-01      0.1290771060E+00
          0                 4           2             8    2     1       0.4537270069E-03       8    2    1         0.1178285523E-01      0.5447925026E-01
          0                 5           2             8    2     1       0.2039400219E-03       8    2    1         0.5296129531E-02      0.2413192533E-01
          0                 6           1             8    2     1       0.9166636755E-04       8    2    1         0.2380490122E-02      0.1077799598E-01
          0                 7           1             8    2     1       0.4120190566E-04       8    2    1         0.1069975649E-02      0.4820937787E-02
          0                 8           1             8    2     1       0.1851928900E-04       8    2    1         0.4809291794E-03      0.2157220620E-02
          0                 9           1             8    2     1       0.8323979773E-05       8    2    1         0.2161663433E-03      0.9654698712E-03

    ------------------------------------------------
       NWT REQUIRED            9 OUTER ITERATIONS 
       AND A TOTAL OF         14 INNER ITERATIONS.
    ------------------------------------------------

 NO OUTPUT CONTROL FOR STRESS PERIOD   25   TIME STEP   14
 
 SOLVING FOR HEAD 
                                                   Max.-Head-Change                         Max.-Flux-Residual
  Residual-Control   Outer-Iter.   Inner-Iter.     Column Row Layer    Maximum-Head-Change  Column Row Layer    Maximum-Flux-Residual          L2-NORM 
          0                 1           2             7    5     1       0.6132083860E-02       7    5    1         0.3199623956E+00      0.1692737667E+01
          0                 2           2             8    2     1       0.2244723568E-02       7    6    1         0.6208278758E-01      0.3792282761E+00
          0                 3           2             8    2     1       0.1008953619E-02       8    2    1         0.2620154542E-01      0.1289597417E+00
          0                 4           2             8    2     1       0.4535020731E-03       8    2    1         0.1177701446E-01      0.5442979371E-01
          0                 5           2             8    2     1       0.2038389085E-03       8    2    1         0.5293503932E-02      0.2411065925E-01
          0                 6           1             8    2     1       0.9162091475E-04       8    2    1         0.2379309847E-02      0.1076880020E-01
          0                 7           1             8    2     1       0.4118147372E-04       8    2    1         0.1069445092E-02      0.4816951031E-02
          0                 8           1             8    2     1       0.1851010467E-04       8    2    1         0.4806906873E-03      0.2155482770E-02
          0                 9           1             8    2     1       0.8319851440E-05       8    2    1         0.2160591394E-03      0.9647169239E-03

    ------------------------------------------------
       NWT REQUIRED            9 OUTER ITERATIONS 
       AND A TOTAL OF         14 INNER ITERATIONS.
    ------------------------------------------------

 NO OUTPUT CONTROL FOR STRESS PERIOD   25   TIME STEP   15
 
 SOLVING FOR HEAD 
                                                   Max.-Head-Change                         Max.-Flux-Residual
  Residual-Control   Outer-Iter.   Inner-Iter.     Column Row Layer    Maximum-Head-Change  Column Row Layer    Maximum-Flux-Residual          L2-NORM 
          0                 1           2             7    5     1       0.6112470355E-02       7    5    1         0.3189222560E+00      0.1691534847E+01
          0                 2           2             8    2     1       0.2243612878E-02       7    6    1         0.6187278112E-01      0.3790723979E+00
          0                 3           2             8    2     1       0.1008454365E-02       8    2    1         0.2618858076E-01      0.1289219146E+00
          0                 4           2             8    2     1       0.4532776611E-03       8    2    1         0.1177118687E-01      0.5441372983E-01
          0                 5           2             8    2     1       0.2037380376E-03       8    2    1         0.5290884468E-02      0.2410291117E-01
          0                 6           1             8    2     1       0.9157557462E-04       8    2    1         0.2378132428E-02      0.1076505881E-01
          0                 7           1             8    2     1       0.4116109454E-04       8    2    1         0.1068915863E-02      0.4815170151E-02
          0                 8           1             8    2     1       0.1850094460E-04       8    2    1         0.4804528084E-03      0.2154646485E-02
          0                 9           1             8    2     1       0.8315734362E-05       8    2    1         0.2159522186E-03      0.9643285174E-03

    ------------------------------------------------
       NWT REQUIRED            9 OUTER ITERATIONS 
       AND A TOTAL OF         14 INNER ITERATIONS.
    ------------------------------------------------

 NO OUTPUT CONTROL FOR STRESS PERIOD   25   TIME STEP   16
 
 SOLVING FOR HEAD 
                                                   Max.-Head-Change                         Max.-Flux-Residual
  Residual-Control   Outer-Iter.   Inner-Iter.     Column Row Layer    Maximum-Head-Change  Column Row Layer    Maximum-Flux-Residual          L2-NORM 
          0                 1           2             7    5     1       0.6093515344E-02       7    5    1         0.3179176196E+00      0.1690097459E+01
          0                 2           2             8    2     1       0.2242483815E-02       7    6    1         0.6166561172E-01      0.3788030726E+00
          0                 3           2             8    2     1       0.1007946859E-02       8    2    1         0.2617540167E-01      0.1288341083E+00
          0                 4           2             8    2     1       0.4530495433E-03       8    2    1         0.1176526298E-01      0.5437811698E-01
          0                 5           2             8    2     1       0.2036355023E-03       8    2    1         0.5288221753E-02      0.2408777800E-01
          0                 6           1             8    2     1       0.9152948703E-04       8    2    1         0.2376935581E-02      0.1075855709E-01
          0                 7           1             8    2     1       0.4114037935E-04       8    2    1         0.1068377905E-02      0.4812365697E-02
          0                 8           1             8    2     1       0.1849163359E-04       8    2    1         0.4802110074E-03      0.2153439247E-02
          0                 9           1             8    2     1       0.8311549379E-05       8    2    1         0.2158435367E-03      0.9638147180E-03

    ------------------------------------------------
       NWT REQUIRED            9 OUTER ITERATIONS 
       AND A TOTAL OF         14 INNER ITERATIONS.
    ------------------------------------------------

 NO OUTPUT CONTROL FOR STRESS PERIOD   25   TIME STEP   17
 
 SOLVING FOR HEAD 
                                                   Max.-Head-Change                         Max.-Flux-Residual
  Residual-Control   Outer-Iter.   Inner-Iter.     Column Row Layer    Maximum-Head-Change  Column Row Layer    Maximum-Flux-Residual          L2-NORM 
          0                 1           2             7    5     1       0.6074951322E-02       7    5    1         0.3169340396E+00      0.1688914945E+01
          0                 2           2             8    2     1       0.2241357183E-02       7    6    1         0.6146126314E-01      0.3786585604E+00
          0                 3           2             8    2     1       0.1007440444E-02       8    2    1         0.2616225094E-01      0.1288049030E+00
          0                 4           2             8    2     1       0.4528219139E-03       8    2    1         0.1175935180E-01      0.5436747977E-01
          0                 5           2             8    2     1       0.2035331860E-03       8    2    1         0.5285564736E-02      0.2408298288E-01
          0                 6           1             8    2     1       0.9148349761E-04       8    2    1         0.2375741291E-02      0.1075631483E-01
          0                 7           1             8    2     1       0.4111970792E-04       8    2    1         0.1067841094E-02      0.4811317077E-02
          0                 8           1             8    2     1       0.1848234259E-04       8    2    1         0.4799697276E-03      0.2152947746E-02
          0                 9           1             8    2     1       0.8307373150E-05       8    2    1         0.2157350874E-03      0.9635778964E-03

    ------------------------------------------------
       NWT REQUIRED            9 OUTER ITERATIONS 
       AND A TOTAL OF         14 INNER ITERATIONS.
    ------------------------------------------------

 NO OUTPUT CONTROL FOR STRESS PERIOD   25   TIME STEP   18
 
 SOLVING FOR HEAD 
                                                   Max.-Head-Change                         Max.-Flux-Residual
  Residual-Control   Outer-Iter.   Inner-Iter.     Column Row Layer    Maximum-Head-Change  Column Row Layer    Maximum-Flux-Residual          L2-NORM 
          0                 1           2             7    5     1       0.6056761900E-02       7    5    1         0.3159705027E+00      0.1687735033E+01
          0                 2           2             8    2     1       0.2240253771E-02       8    6    1         0.6130821626E-01      0.3784836090E+00
          0                 3           2             8    2     1       0.1006944465E-02       8    2    1         0.2614937124E-01      0.1287601891E+00
          0                 4           2             8    2     1       0.4525989761E-03       8    2    1         0.1175356245E-01      0.5435063296E-01
          0                 5           2             8    2     1       0.2034329783E-03       8    2    1         0.5282962477E-02      0.2407578410E-01
          0                 6           1             8    2     1       0.9143845624E-04       8    2    1         0.2374571610E-02      0.1075313048E-01
          0                 7           1             8    2     1       0.4109946280E-04       8    2    1         0.1067315339E-02      0.4809888948E-02
          0                 8           1             8    2     1       0.1847324243E-04       8    2    1         0.4797334078E-03      0.2152302924E-02
          0                 9           1             8    2     1       0.8303283084E-05       8    2    1         0.2156288698E-03      0.9632855708E-03

    ------------------------------------------------
       NWT REQUIRED            9 OUTER ITERATIONS 
       AND A TOTAL OF         14 INNER ITERATIONS.
    ------------------------------------------------

 NO OUTPUT CONTROL FOR STRESS PERIOD   25   TIME STEP   19
 
 SOLVING FOR HEAD 
                                                   Max.-Head-Change                         Max.-Flux-Residual
  Residual-Control   Outer-Iter.   Inner-Iter.     Column Row Layer    Maximum-Head-Change  Column Row Layer    Maximum-Flux-Residual          L2-NORM 
          0                 1           2             7    5     1       0.6039166269E-02       7    5    1         0.3150389110E+00      0.1686616629E+01
          0                 2           2             8    2     1       0.2239132098E-02       8    6    1         0.6118894012E-01      0.3783455099E+00
          0                 3           2             8    2     1       0.1006440315E-02       8    2    1         0.2613627858E-01      0.1287315024E+00
          0                 4           2             8    2     1       0.4523723809E-03       8    2    1         0.1174767778E-01      0.5434015375E-01
          0                 5           2             8    2     1       0.2033311338E-03       8    2    1         0.5280317567E-02      0.2407111418E-01
          0                 6           1             8    2     1       0.9139268217E-04       8    2    1         0.2373382846E-02      0.1075096047E-01
          0                 7           1             8    2     1       0.4107888967E-04       8    2    1         0.1066781050E-02      0.4808875570E-02
          0                 8           1             8    2     1       0.1846399620E-04       8    2    1         0.4794932756E-03      0.2151834452E-02
          0                 9           1             8    2     1       0.8299127614E-05       8    2    1         0.2155209440E-03      0.9630758837E-03

    ------------------------------------------------
       NWT REQUIRED            9 OUTER ITERATIONS 
       AND A TOTAL OF         14 INNER ITERATIONS.
    ------------------------------------------------

 NO OUTPUT CONTROL FOR STRESS PERIOD   25   TIME STEP   20
 
 SOLVING FOR HEAD 
                                                   Max.-Head-Change                         Max.-Flux-Residual
  Residual-Control   Outer-Iter.   Inner-Iter.     Column Row Layer    Maximum-Head-Change  Column Row Layer    Maximum-Flux-Residual          L2-NORM 
          0                 1           2             7    5     1       0.6021903197E-02       7    5    1         0.3141250752E+00      0.1685661253E+01
          0                 2           2             8    2     1       0.2238012967E-02       8    6    1         0.6107097416E-01      0.3782364212E+00
          0                 3           2             8    2     1       0.1005937304E-02       8    2    1         0.2612321557E-01      0.1287104080E+00
          0                 4           2             8    2     1       0.4521462973E-03       8    2    1         0.1174180643E-01      0.5433227899E-01
          0                 5           2             8    2     1       0.2032295188E-03       8    2    1         0.5277678622E-02      0.2406743006E-01
          0                 6           1             8    2     1       0.9134701089E-04       8    2    1         0.2372196754E-02      0.1074917916E-01
          0                 7           1             8    2     1       0.4105836281E-04       8    2    1         0.1066247958E-02      0.4808019746E-02
          0                 8           1             8    2     1       0.1845477035E-04       8    2    1         0.4792536762E-03      0.2151421301E-02
          0                 9           1             8    2     1       0.8294980898E-05       8    2    1         0.2154132573E-03      0.9628723396E-03

    ------------------------------------------------
       NWT REQUIRED            9 OUTER ITERATIONS 
       AND A TOTAL OF         14 INNER ITERATIONS.
    ------------------------------------------------

 NO OUTPUT CONTROL FOR STRESS PERIOD   25   TIME STEP   21
 
 SOLVING FOR HEAD 
                                                   Max.-Head-Change                         Max.-Flux-Residual
  Residual-Control   Outer-Iter.   Inner-Iter.     Column Row Layer    Maximum-Head-Change  Column Row Layer    Maximum-Flux-Residual          L2-NORM 
          0                 1           2             7    5     1       0.6004959484E-02       7    5    1         0.3132283220E+00      0.1684674266E+01
          0                 2           2             8    2     1       0.2236896358E-02       8    6    1         0.6095620600E-01      0.3781201664E+00
          0                 3           2             8    2     1       0.1005435424E-02       8    2    1         0.2611018198E-01      0.1286886467E+00
          0                 4           2             8    2     1       0.4519207200E-03       8    2    1         0.1173594825E-01      0.5432444363E-01
          0                 5           2             8    2     1       0.2031281307E-03       8    2    1         0.5275045584E-02      0.2406379692E-01
          0                 6           1             8    2     1       0.9130144128E-04       8    2    1         0.2371013309E-02      0.1074742267E-01
          0                 7           1             8    2     1       0.4103788159E-04       8    2    1         0.1065716051E-02      0.4807172875E-02
          0                 8           1             8    2     1       0.1844556514E-04       8    2    1         0.4790146078E-03      0.2151021526E-02
          0                 9           1             8    2     1       0.8290843686E-05       8    2    1         0.2153058051E-03      0.9626896355E-03

    ------------------------------------------------
       NWT REQUIRED            9 OUTER ITERATIONS 
       AND A TOTAL OF         14 INNER ITERATIONS.
    ------------------------------------------------

 NO OUTPUT CONTROL FOR STRESS PERIOD   25   TIME STEP   22
 
 SOLVING FOR HEAD 
                                                   Max.-Head-Change                         Max.-Flux-Residual
  Residual-Control   Outer-Iter.   Inner-Iter.     Column Row Layer    Maximum-Head-Change  Column Row Layer    Maximum-Flux-Residual          L2-NORM 
          0                 1           2             7    5     1       0.5988438592E-02       7    5    1         0.3123543534E+00      0.1683601402E+01
          0                 2           2             8    2     1       0.2235782299E-02       8    6    1         0.6084249870E-01      0.3779685648E+00
          0                 3           2             8    2     1       0.1004934697E-02       8    2    1         0.2609717819E-01      0.1286512021E+00
          0                 4           2             8    2     1       0.4516956643E-03       8    2    1         0.1173010355E-01      0.5430961602E-01
          0                 5           2             8    2     1       0.2030269788E-03       8    2    1         0.5272418647E-02      0.2405708695E-01
          0                 6           1             8    2     1       0.9125597860E-04       8    2    1         0.2369832622E-02      0.1074432772E-01
          0                 7           1             8    2     1       0.4101744814E-04       8    2    1         0.1065185390E-02      0.4805748245E-02
          0                 8           1             8    2     1       0.1843638169E-04       8    2    1         0.4787761084E-03      0.2150366992E-02
          0                 9           1             8    2     1       0.8286716229E-05       8    2    1         0.2151986154E-03      0.9623894395E-03

    ------------------------------------------------
       NWT REQUIRED            9 OUTER ITERATIONS 
       AND A TOTAL OF         14 INNER ITERATIONS.
    ------------------------------------------------

 NO OUTPUT CONTROL FOR STRESS PERIOD   25   TIME STEP   23
 
 SOLVING FOR HEAD 
                                                   Max.-Head-Change                         Max.-Flux-Residual
  Residual-Control   Outer-Iter.   Inner-Iter.     Column Row Layer    Maximum-Head-Change  Column Row Layer    Maximum-Flux-Residual          L2-NORM 
          0                 1           2             7    5     1       0.5972327338E-02       7    5    1         0.3115020584E+00      0.1682598703E+01
          0                 2           2             8    2     1       0.2234670853E-02       8    6    1         0.6073082337E-01      0.3778373451E+00
          0                 3           2             8    2     1       0.1004435163E-02       8    2    1         0.2608420501E-01      0.1286242157E+00
          0                 4           2             8    2     1       0.4514711528E-03       8    2    1         0.1172427282E-01      0.5430014037E-01
          0                 5           2             8    2     1       0.2029260746E-03       8    2    1         0.5269798074E-02      0.2405281794E-01
          0                 6           1             8    2     1       0.9121062884E-04       8    2    1         0.2368654839E-02      0.1074232168E-01
          0                 7           1             8    2     1       0.4099706672E-04       8    2    1         0.1064656055E-02      0.4804803283E-02
          0                 8           1             8    2     1       0.1842722175E-04       8    2    1         0.4785382068E-03      0.2149921913E-02
          0                 9           1             8    2     1       0.8282599151E-05       8    2    1         0.2150916922E-03      0.9621763120E-03

    ------------------------------------------------
       NWT REQUIRED            9 OUTER ITERATIONS 
       AND A TOTAL OF         14 INNER ITERATIONS.
    ------------------------------------------------

 NO OUTPUT CONTROL FOR STRESS PERIOD   25   TIME STEP   24
 
 SOLVING FOR HEAD 
                                                   Max.-Head-Change                         Max.-Flux-Residual
  Residual-Control   Outer-Iter.   Inner-Iter.     Column Row Layer    Maximum-Head-Change  Column Row Layer    Maximum-Flux-Residual          L2-NORM 
          0                 1           2             7    5     1       0.5956606760E-02       7    5    1         0.3106708892E+00      0.1681499834E+01
          0                 2           2             8    2     1       0.2233561993E-02       8    6    1         0.6062104976E-01      0.3776426134E+00
          0                 3           2             8    2     1       0.1003936786E-02       8    2    1         0.2607126195E-01      0.1285786577E+00
          0                 4           2             8    2     1       0.4512471593E-03       8    2    1         0.1171845558E-01      0.5428400410E-01
          0                 5           2             8    2     1       0.2028254025E-03       8    2    1         0.5267183546E-02      0.2404583258E-01
          0                 6           1             8    2     1       0.9116538275E-04       8    2    1         0.2367479760E-02      0.1073916237E-01
          0                 7           1             8    2     1       0.4097673131E-04       8    2    1         0.1064127930E-02      0.4803364884E-02
          0                 8           1             8    2     1       0.1841808231E-04       8    2    1         0.4783008526E-03      0.2149265409E-02
          0                 9           1             8    2     1       0.8278492328E-05       8    2    1         0.2149850230E-03      0.9618824834E-03

    ------------------------------------------------
       NWT REQUIRED            9 OUTER ITERATIONS 
       AND A TOTAL OF         14 INNER ITERATIONS.
    ------------------------------------------------

 NO OUTPUT CONTROL FOR STRESS PERIOD   25   TIME STEP   25
 
 SOLVING FOR HEAD 
                                                   Max.-Head-Change                         Max.-Flux-Residual
  Residual-Control   Outer-Iter.   Inner-Iter.     Column Row Layer    Maximum-Head-Change  Column Row Layer    Maximum-Flux-Residual          L2-NORM 
          0                 1           2             7    5     1       0.5941141947E-02       7    5    1         0.3098533482E+00      0.1679457551E+01
          0                 2           2             8    2     1       0.2232455740E-02       8    6    1         0.6051308341E-01      0.3773558050E+00
          0                 3           2             8    2     1       0.1003439588E-02       8    2    1         0.2605834938E-01      0.1285431077E+00
          0                 4           2             8    2     1       0.4510236989E-03       8    2    1         0.1171265212E-01      0.5427452212E-01
          0                 5           2             8    2     1       0.2027249709E-03       8    2    1         0.5264575238E-02      0.2404177877E-01
          0                 6           1             8    2     1       0.9112024546E-04       8    2    1         0.2366307496E-02      0.1073725002E-01
          0                 7           1             8    2     1       0.4095644568E-04       8    2    1         0.1063601080E-02      0.4802456004E-02
          0                 8           1             8    2     1       0.1840896539E-04       8    2    1         0.4780640677E-03      0.2148836142E-02
          0                 9           1             8    2     1       0.8274394759E-05       8    2    1         0.2148786025E-03      0.9616816719E-03

    ------------------------------------------------
       NWT REQUIRED            9 OUTER ITERATIONS 
       AND A TOTAL OF         14 INNER ITERATIONS.
    ------------------------------------------------

 NO OUTPUT CONTROL FOR STRESS PERIOD   25   TIME STEP   26
 
 SOLVING FOR HEAD 
                                                   Max.-Head-Change                         Max.-Flux-Residual
  Residual-Control   Outer-Iter.   Inner-Iter.     Column Row Layer    Maximum-Head-Change  Column Row Layer    Maximum-Flux-Residual          L2-NORM 
          0                 1           2             7    5     1       0.5926043204E-02       7    5    1         0.3090553398E+00      0.1677727285E+01
          0                 2           2             8    2     1       0.2231331378E-02       8    6    1         0.6040584578E-01      0.3771461280E+00
          0                 3           2             8    2     1       0.1002934275E-02       8    2    1         0.2604522554E-01      0.1285113958E+00
          0                 4           2             8    2     1       0.4507966017E-03       8    2    1         0.1170675398E-01      0.5426470121E-01
          0                 5           2             8    2     1       0.2026229102E-03       8    2    1         0.5261924513E-02      0.2403740857E-01
          0                 6           1             8    2     1       0.9107437810E-04       8    2    1         0.2365116219E-02      0.1073518183E-01
          0                 7           1             8    2     1       0.4093583241E-04       8    2    1         0.1063065704E-02      0.4801475941E-02
          0                 8           1             8    2     1       0.1839970153E-04       8    2    1         0.4778234646E-03      0.2148573452E-02
          0                 9           1             8    2     1       0.8270231535E-05       8    2    1         0.2147704759E-03      0.9619570583E-03

    ------------------------------------------------
       NWT REQUIRED            9 OUTER ITERATIONS 
       AND A TOTAL OF         14 INNER ITERATIONS.
    ------------------------------------------------

 NO OUTPUT CONTROL FOR STRESS PERIOD   25   TIME STEP   27
 
 SOLVING FOR HEAD 
                                                   Max.-Head-Change                         Max.-Flux-Residual
  Residual-Control   Outer-Iter.   Inner-Iter.     Column Row Layer    Maximum-Head-Change  Column Row Layer    Maximum-Flux-Residual          L2-NORM 
          0                 1           2             7    5     1       0.5911297458E-02       7    5    1         0.3082761598E+00      0.1676702580E+01
          0                 2           2             8    2     1       0.2230230502E-02       8    6    1         0.6030130588E-01      0.3769834778E+00
          0                 3           2             8    2     1       0.1002439506E-02       8    2    1         0.2603237579E-01      0.1284646299E+00
          0                 4           2             8    2     1       0.4505742384E-03       8    2    1         0.1170097891E-01      0.5424519440E-01
          0                 5           2             8    2     1       0.2025229746E-03       8    2    1         0.5259329033E-02      0.2402852459E-01
          0                 6           1             8    2     1       0.9102946491E-04       8    2    1         0.2363949747E-02      0.1073109142E-01
          0                 7           1             8    2     1       0.4091564782E-04       8    2    1         0.1062541468E-02      0.4799597654E-02
          0                 8           1             8    2     1       0.1839063000E-04       8    2    1         0.4775878607E-03      0.2147517824E-02
          0                 9           1             8    2     1       0.8266154725E-05       8    2    1         0.2146645932E-03      0.9610683664E-03

    ------------------------------------------------
       NWT REQUIRED            9 OUTER ITERATIONS 
       AND A TOTAL OF         14 INNER ITERATIONS.
    ------------------------------------------------

 NO OUTPUT CONTROL FOR STRESS PERIOD   25   TIME STEP   28
 
 SOLVING FOR HEAD 
                                                   Max.-Head-Change                         Max.-Flux-Residual
  Residual-Control   Outer-Iter.   Inner-Iter.     Column Row Layer    Maximum-Head-Change  Column Row Layer    Maximum-Flux-Residual          L2-NORM 
          0                 1           2             7    5     1       0.5896772989E-02       7    5    1         0.3075087782E+00      0.1675691927E+01
          0                 2           2             8    2     1       0.2229132204E-02       8    6    1         0.6019736028E-01      0.3768193239E+00
          0                 3           2             8    2     1       0.1001945882E-02       8    2    1         0.2601955606E-01      0.1284170957E+00
          0                 4           2             8    2     1       0.4503523836E-03       8    2    1         0.1169521716E-01      0.5422615117E-01
          0                 5           2             8    2     1       0.2024232645E-03       8    2    1         0.5256739465E-02      0.2402025389E-01
          0                 6           1             8    2     1       0.9098465164E-04       8    2    1         0.2362785898E-02      0.1072743751E-01
          0                 7           1             8    2     1       0.4089550725E-04       8    2    1         0.1062018395E-02      0.4797975102E-02
          0                 8           1             8    2     1       0.1838157836E-04       8    2    1         0.4773527770E-03      0.2146796837E-02
          0                 9           1             8    2     1       0.8262086794E-05       8    2    1         0.2145589400E-03      0.9607549236E-03

    ------------------------------------------------
       NWT REQUIRED            9 OUTER ITERATIONS 
       AND A TOTAL OF         14 INNER ITERATIONS.
    ------------------------------------------------

 NO OUTPUT CONTROL FOR STRESS PERIOD   25   TIME STEP   29
 
 SOLVING FOR HEAD 
                                                   Max.-Head-Change                         Max.-Flux-Residual
  Residual-Control   Outer-Iter.   Inner-Iter.     Column Row Layer    Maximum-Head-Change  Column Row Layer    Maximum-Flux-Residual          L2-NORM 
          0                 1           2             7    5     1       0.5882581126E-02       7    5    1         0.3067591195E+00      0.1674821520E+01
          0                 2           2             8    2     1       0.2228015804E-02       8    6    1         0.6009496362E-01      0.3766873400E+00
          0                 3           2             8    2     1       0.1001444155E-02       8    2    1         0.2600652520E-01      0.1283804288E+00
          0                 4           2             8    2     1       0.4501269013E-03       8    2    1         0.1168936090E-01      0.5421120638E-01
          0                 5           2             8    2     1       0.2023219310E-03       8    2    1         0.5254107596E-02      0.2401353412E-01
          0                 6           1             8    2     1       0.9093911179E-04       8    2    1         0.2361603114E-02      0.1072435436E-01
          0                 7           1             8    2     1       0.4087504117E-04       8    2    1         0.1061486843E-02      0.4796555389E-02
          0                 8           1             8    2     1       0.1837238115E-04       8    2    1         0.4771138994E-03      0.2146140927E-02
          0                 9           1             8    2     1       0.8257953459E-05       8    2    1         0.2144515870E-03      0.9604463493E-03

    ------------------------------------------------
       NWT REQUIRED            9 OUTER ITERATIONS 
       AND A TOTAL OF         14 INNER ITERATIONS.
    ------------------------------------------------

 NO OUTPUT CONTROL FOR STRESS PERIOD   25   TIME STEP   30



 STREAM LISTING     PERIOD     25   STEP       30

 LAYER ROW COL. STREAM  RCH.  FLOW INTO     FLOW TO   FLOW OUT OF   OVRLND.     DIRECT     STREAM       STREAM     STREAM     STREAM   STREAMBED  STREAMBED
                SEG.NO.  NO.  STRM. RCH.    AQUIFER    STRM. RCH.    RUNOFF     PRECIP       ET          HEAD       DEPTH      WIDTH   CONDCTNC.   GRADIENT

   1    1    1     1     1    3.5000E+00  8.3255E-10   3.5000E+00  0.000E+00  0.000E+00  0.000E+00  1.09371E+03  6.654E-01  5.047E+00  2.271E-10  1.222E+00
   1    2    2     1     2    3.5000E+00  1.2916E-09   3.5000E+00  0.000E+00  0.000E+00  0.000E+00  1.08872E+03  6.639E-01  5.036E+00  3.525E-10  1.221E+00
   1    3    3     1     3    3.5000E+00  1.1083E-09   3.5000E+00  0.000E+00  0.000E+00  0.000E+00  1.08308E+03  6.645E-01  5.041E+00  3.024E-10  1.222E+00
   1    3    4     1     4    3.5000E+00  1.0257E-09   3.5000E+00  0.000E+00  0.000E+00  0.000E+00  1.07807E+03  6.648E-01  5.043E+00  2.799E-10  1.222E+00
   1    4    5     2     1    1.5000E+00  2.5053E-01   1.2495E+00  0.000E+00  0.000E+00  0.000E+00  1.07215E+03  2.119E-01  1.200E+01  7.800E-02  1.071E+00
   1    5    6     2     2    1.2495E+00  1.9144E-01   1.0580E+00  0.000E+00  0.000E+00  0.000E+00  1.06670E+03  1.907E-01  1.200E+01  6.000E-02  1.064E+00
   1    6    6     2     3    1.0580E+00  1.9027E-01   8.6776E-01  0.000E+00  0.000E+00  0.000E+00  1.06196E+03  1.711E-01  1.200E+01  6.000E-02  1.057E+00
   1    7    6     2     4    8.6776E-01  1.8900E-01   6.7876E-01  0.000E+00  0.000E+00  0.000E+00  1.05723E+03  1.500E-01  1.200E+01  6.000E-02  1.050E+00
   1    8    6     2     5    6.7876E-01  1.8761E-01   4.9115E-01  0.000E+00  0.000E+00  0.000E+00  1.05249E+03  1.269E-01  1.200E+01  6.000E-02  1.042E+00
   1    3    5     3     1    2.0000E+00  2.8252E-01   1.7175E+00  0.000E+00  0.000E+00  0.000E+00  1.07555E+03  1.909E+00  9.636E+00  7.227E-02  1.955E+00
   1    3    6     3     2    1.7175E+00  2.4905E-01   1.4684E+00  0.000E+00  0.000E+00  0.000E+00  1.07264E+03  1.727E+00  8.909E+00  6.682E-02  1.864E+00
   1    3    7     3     3    1.4684E+00  1.9718E-01   1.2712E+00  0.000E+00  0.000E+00  0.000E+00  1.06987E+03  1.555E+00  8.218E+00  5.547E-02  1.777E+00
   1    4    8     3     4    1.2712E+00  2.2567E-01   1.0456E+00  0.000E+00  0.000E+00  0.000E+00  1.06682E+03  1.364E+00  7.455E+00  6.709E-02  1.682E+00
   1    5    8     3     5    1.0456E+00  1.5790E-01   8.8768E-01  0.000E+00  0.000E+00  0.000E+00  1.06362E+03  1.164E+00  6.655E+00  4.991E-02  1.582E+00
   1    6    8     3     6    8.8768E-01  5.5980E-02   8.3170E-01  0.000E+00  0.000E+00  0.000E+00  1.06158E+03  1.036E+00  6.145E+00  1.844E-02  1.518E+00
   1    5   10     4     1    1.0000E+01  9.0919E-02   9.9091E+00  0.000E+00  0.000E+00  0.000E+00  1.07836E+03  6.368E-01  1.000E+01  2.500E-02  1.212E+00
   1    5    9     4     2    9.9091E+00  1.8158E-01   9.7275E+00  0.000E+00  0.000E+00  0.000E+00  1.07154E+03  6.315E-01  1.000E+01  5.000E-02  1.211E+00
   1    6    8     4     3    9.7275E+00  1.2689E-01   9.6006E+00  0.000E+00  0.000E+00  0.000E+00  1.06381E+03  6.256E-01  1.000E+01  3.500E-02  1.209E+00
   1    6    8     5     1    1.0432E+01  2.2686E-09   1.0432E+01  0.000E+00  0.000E+00  0.000E+00  1.05868E+03  6.790E-01  1.542E+01  6.166E-10  1.226E+00
   1    7    7     5     2    1.0432E+01  2.8306E-09   1.0432E+01  0.000E+00  0.000E+00  0.000E+00  1.05418E+03  6.784E-01  1.539E+01  7.695E-10  1.226E+00
   1    8    7     5     3    1.0432E+01  1.9868E-09   1.0432E+01  0.000E+00  0.000E+00  0.000E+00  1.04993E+03  6.794E-01  1.543E+01  5.400E-10  1.226E+00
   1    8    6     5     4    1.0432E+01  1.4217E-09   1.0432E+01  0.000E+00  0.000E+00  0.000E+00  1.04693E+03  6.800E-01  1.545E+01  3.863E-10  1.227E+00
   1    9    6     6     1    1.0923E+01  2.2430E-01   1.0699E+01  0.000E+00  0.000E+00  0.000E+00  1.04347E+03  7.384E-01  1.200E+01  6.000E-02  1.246E+00
   1   10    7     6     2    1.0699E+01  2.2375E-01   1.0475E+01  0.000E+00  0.000E+00  0.000E+00  1.03891E+03  7.292E-01  1.200E+01  6.000E-02  1.243E+00
   1   11    7     6     3    1.0475E+01  2.2320E-01   1.0252E+01  0.000E+00  0.000E+00  0.000E+00  1.03436E+03  7.199E-01  1.200E+01  6.000E-02  1.240E+00
   1   12    7     6     4    1.0252E+01  2.2264E-01   1.0030E+01  0.000E+00  0.000E+00  0.000E+00  1.02980E+03  7.106E-01  1.200E+01  6.000E-02  1.237E+00
   1   13    7     6     5    1.0030E+01  8.8896E-02   9.9407E+00  0.000E+00  0.000E+00  0.000E+00  1.02661E+03  7.040E-01  1.200E+01  2.400E-02  1.235E+00
   1   14    9     7     1    1.5000E+02  2.9539E-08   1.5000E+02  0.000E+00  0.000E+00  0.000E+00  1.03986E+03  2.283E+00  5.528E+01  5.591E-09  1.761E+00
   1   13    8     7     2    1.5000E+02  3.2486E-14   1.5000E+02  0.000E+00  0.000E+00  0.000E+00  1.03478E+03  2.283E+00  5.527E+01  6.150E-15  1.761E+00
   1   13    7     7     3    1.5000E+02  2.9539E-08   1.5000E+02  0.000E+00  0.000E+00  0.000E+00  1.02970E+03  2.283E+00  5.528E+01  5.591E-09  1.761E+00
   1   13    6     8     1    1.5994E+02  2.4983E-13   1.5994E+02  0.000E+00  0.000E+00  0.000E+00  1.02475E+03  2.877E+00  4.172E+01  4.251E-14  1.959E+00
   1   13    5     8     2    1.5994E+02  2.4983E-14   1.5994E+02  0.000E+00  0.000E+00  0.000E+00  1.01850E+03  2.877E+00  4.172E+01  4.251E-15  1.959E+00
   1   13    4     8     3    1.5994E+02  1.4486E-09   1.5994E+02  0.000E+00  0.000E+00  0.000E+00  1.01226E+03  2.881E+00  4.177E+01  4.256E-10  1.134E+00
   1   13    3     8     4    1.5994E+02  2.6957E-08   1.5994E+02  0.000E+00  0.000E+00  0.000E+00  1.00601E+03  2.885E+00  4.184E+01  4.263E-07  2.108E-02
   1   13    2     8     5    1.5994E+02 -1.9022E+00   1.6184E+02  0.000E+00  0.000E+00  0.000E+00  9.99767E+02  2.892E+00  4.193E+01  4.273E+00 -1.484E-01
   1   13    1     8     6    1.6184E+02 -1.8627E+00   1.6371E+02  0.000E+00  0.000E+00  0.000E+00  9.94779E+02  2.905E+00  4.212E+01  2.575E+00 -2.411E-01
   1    6    8     9     1    0.0000E+00  0.0000E+00   0.0000E+00  0.000E+00  0.000E+00  0.000E+00  1.07850E+03  0.000E+00  4.000E+00  0.000E+00  1.000E+00





UNSATURATED ZONE PACKAGE VOLUMETRIC BUDGET FOR  TIME STEP    30 STRESS PERIOD   25
  ------------------------------------------------------------------------------



     CUMULATIVE VOLUMES      L**3       RATES FOR THIS TIME STEP      L**3/T
     ------------------                 ------------------------

           IN:                                      IN:
           ---                                      ---
        INFILTRATION =   137626364.6154          INFILTRATION =           0.8475

          OUT:                                     OUT:
          ----                                     ----
              UZF ET =   618712839.9030                UZF ET =           0.0111
        UZF RECHARGE =  1621078529.4510          UZF RECHARGE =          22.6538

            IN - OUT = -2102165004.7385              IN - OUT =         -21.8173

          STORAGE:                                 STORAGE:
          --------                                 --------
      STORAGE CHANGE = -2102139273.1202        STORAGE CHANGE =         -21.8173

 PERCENT DISCREPANCY IS DIFFERENCE BETWEEN IN-OUT MINUS CHANGE IN STORAGE
 DIVIDED BY THE AVERAGE OF IN AND OUT TIMES 100

 PERCENT DISCREPANCY =          -0.00     PERCENT DISCREPANCY =           0.00






1
  VOLUMETRIC BUDGET FOR ENTIRE MODEL AT END OF TIME STEP   30, STRESS PERIOD  25
  ------------------------------------------------------------------------------

     CUMULATIVE VOLUMES      L**3       RATES FOR THIS TIME STEP      L**3/T
     ------------------                 ------------------------

           IN:                                      IN:
           ---                                      ---
             STORAGE =    48653724.0000               STORAGE =       9.7768E-03
       CONSTANT HEAD =           0.0000         CONSTANT HEAD =           0.0000
               WELLS =           0.0000                 WELLS =           0.0000
     HEAD DEP BOUNDS =    66862848.0000       HEAD DEP BOUNDS =           0.9686
      STREAM LEAKAGE =   256445824.0000        STREAM LEAKAGE =           3.5593
        UZF RECHARGE =  1621077760.0000          UZF RECHARGE =          22.6538
               GW ET =           0.0000                 GW ET =           0.0000
     SURFACE LEAKAGE =           0.0000       SURFACE LEAKAGE =           0.0000

            TOTAL IN =  1993040128.0000              TOTAL IN =          27.1915

          OUT:                                     OUT:
          ----                                     ----
             STORAGE =  1712359040.0000               STORAGE =          23.1291
       CONSTANT HEAD =           0.0000         CONSTANT HEAD =           0.0000
               WELLS =    16979570.0000                 WELLS =           0.0000
     HEAD DEP BOUNDS =    18599502.0000       HEAD DEP BOUNDS =           0.2851
      STREAM LEAKAGE =   165085984.0000        STREAM LEAKAGE =           3.7649
        UZF RECHARGE =           0.0000          UZF RECHARGE =           0.0000
               GW ET =    79815064.0000                 GW ET =       9.3580E-03
     SURFACE LEAKAGE =           0.0000       SURFACE LEAKAGE =           0.0000

           TOTAL OUT =  1992839168.0000             TOTAL OUT =          27.1885

            IN - OUT =      200960.0000              IN - OUT =       3.0003E-03

 PERCENT DISCREPANCY =           0.01     PERCENT DISCREPANCY =           0.01






         TIME SUMMARY AT END OF TIME STEP   30 IN STRESS PERIOD   25
                    SECONDS     MINUTES      HOURS       DAYS        YEARS
                    -----------------------------------------------------------
   TIME STEP LENGTH  87600.      1460.0      24.333      1.0139     2.77588E-03
 STRESS PERIOD TIME 2.62800E+06  43800.      730.00      30.417     8.32763E-02
         TOTAL TIME 6.57000E+07 1.09500E+06  18250.      760.42      2.0819    
1

 Run end date and time (yyyy/mm/dd hh:mm:ss): 2017/08/03 13:15:02
 Elapsed run time: 23.762 Seconds

