                                  MODFLOW-NWT-SWR1 
      U.S. GEOLOGICAL SURVEY MODULAR FINITE-DIFFERENCE GROUNDWATER-FLOW MODEL
                             VERSION 1.1.4 4/01/2018
                    BASED ON MODFLOW-2005 VERSION 1.12.00 02/03/2017

 LIST FILE: Agwater1_high.lst
                         UNIT    9

 OPENING Agwater1.ba6
 FILE TYPE:BAS6   UNIT   75   STATUS:OLD    
 FORMAT:FORMATTED              ACCESS:SEQUENTIAL          

 OPENING Agwater1.upw
 FILE TYPE:UPW   UNIT    7   STATUS:OLD    
 FORMAT:FORMATTED              ACCESS:SEQUENTIAL          

 OPENING Agwater1.dis
 FILE TYPE:DIS   UNIT    8   STATUS:OLD    
 FORMAT:FORMATTED              ACCESS:SEQUENTIAL          

 OPENING Agwater1.nwt
 FILE TYPE:NWT   UNIT   13   STATUS:OLD    
 FORMAT:FORMATTED              ACCESS:SEQUENTIAL          

 OPENING Agwater1.oc
 FILE TYPE:OC   UNIT   14   STATUS:OLD    
 FORMAT:FORMATTED              ACCESS:SEQUENTIAL          

 OPENING Agwater1.sfr
 FILE TYPE:SFR   UNIT   15   STATUS:OLD    
 FORMAT:FORMATTED              ACCESS:SEQUENTIAL          

 OPENING Agwater1.ghb
 FILE TYPE:GHB   UNIT   17   STATUS:OLD    
 FORMAT:FORMATTED              ACCESS:SEQUENTIAL          

 OPENING Agwater1.uzf
 FILE TYPE:UZF   UNIT   19   STATUS:OLD    
 FORMAT:FORMATTED              ACCESS:SEQUENTIAL          

 OPENING Agwater1.gag
 FILE TYPE:GAGE   UNIT   32   STATUS:OLD    
 FORMAT:FORMATTED              ACCESS:SEQUENTIAL          

 OPENING seg1_high.tab
 FILE TYPE:DATA   UNIT   55   STATUS:UNKNOWN
 FORMAT:FORMATTED              ACCESS:SEQUENTIAL          

 OPENING seg9.tab
 FILE TYPE:DATA   UNIT   56   STATUS:UNKNOWN
 FORMAT:FORMATTED              ACCESS:SEQUENTIAL          

 OPENING Agwater1.ag
 FILE TYPE:AG   UNIT   57   STATUS:OLD    
 FORMAT:FORMATTED              ACCESS:SEQUENTIAL          

 OPENING Agwater1.hed
 FILE TYPE:DATA   UNIT   62   STATUS:UNKNOWN
 FORMAT:FORMATTED              ACCESS:SEQUENTIAL          

 OPENING Agwater1gw_high.ts5
 FILE TYPE:DATA   UNIT  105   STATUS:UNKNOWN
 FORMAT:FORMATTED              ACCESS:SEQUENTIAL          

 OPENING Agwater1SW_high.ts9
 FILE TYPE:DATA   UNIT  107   STATUS:UNKNOWN
 FORMAT:FORMATTED              ACCESS:SEQUENTIAL          

 OPENING Agwater1SW_ET_high.ts9
 FILE TYPE:DATA   UNIT  108   STATUS:UNKNOWN
 FORMAT:FORMATTED              ACCESS:SEQUENTIAL          

 OPENING Agwater1.uzfot
 FILE TYPE:DATA(BINARY)   UNIT   61   STATUS:UNKNOWN
 FORMAT:BINARY                 ACCESS:SEQUENTIAL          

 OPENING Agwater1cbc.unf
 FILE TYPE:DATA(BINARY)   UNIT  102   STATUS:UNKNOWN
 FORMAT:BINARY                 ACCESS:SEQUENTIAL          

 OPENING welllist.unf
 FILE TYPE:DATA(BINARY)   UNIT  103   STATUS:UNKNOWN
 FORMAT:BINARY                 ACCESS:SEQUENTIAL          

 OPENING wellirrlist.unf
 FILE TYPE:DATA(BINARY)   UNIT  104   STATUS:UNKNOWN
 FORMAT:BINARY                 ACCESS:SEQUENTIAL          

 OPENING Agwater1.uzf1
 FILE TYPE:DATA   UNIT   65   STATUS:UNKNOWN
 FORMAT:FORMATTED              ACCESS:SEQUENTIAL          

 OPENING Agwater1.uzf2
 FILE TYPE:DATA   UNIT   66   STATUS:UNKNOWN
 FORMAT:FORMATTED              ACCESS:SEQUENTIAL          

 OPENING Agwater1.uzf3
 FILE TYPE:DATA   UNIT   67   STATUS:UNKNOWN
 FORMAT:FORMATTED              ACCESS:SEQUENTIAL          

 OPENING Agwater1.uzf4
 FILE TYPE:DATA   UNIT   68   STATUS:UNKNOWN
 FORMAT:FORMATTED              ACCESS:SEQUENTIAL          

 OPENING Agwater1.flw
 FILE TYPE:DATA   UNIT   81   STATUS:UNKNOWN
 FORMAT:FORMATTED              ACCESS:SEQUENTIAL          

 OPENING Agwater1.sg1
 FILE TYPE:DATA   UNIT   83   STATUS:UNKNOWN
 FORMAT:FORMATTED              ACCESS:SEQUENTIAL          

 OPENING Agwater1.sg2
 FILE TYPE:DATA   UNIT   84   STATUS:UNKNOWN
 FORMAT:FORMATTED              ACCESS:SEQUENTIAL          

 OPENING Agwater1.sg3
 FILE TYPE:DATA   UNIT   85   STATUS:UNKNOWN
 FORMAT:FORMATTED              ACCESS:SEQUENTIAL          

 OPENING Agwater1.sg4
 FILE TYPE:DATA   UNIT   86   STATUS:UNKNOWN
 FORMAT:FORMATTED              ACCESS:SEQUENTIAL          

 OPENING Agwater1.sg5
 FILE TYPE:DATA   UNIT   87   STATUS:UNKNOWN
 FORMAT:FORMATTED              ACCESS:SEQUENTIAL          

 OPENING Agwater1.sg6
 FILE TYPE:DATA   UNIT   88   STATUS:UNKNOWN
 FORMAT:FORMATTED              ACCESS:SEQUENTIAL          

 OPENING Agwater1.sg7
 FILE TYPE:DATA   UNIT   89   STATUS:UNKNOWN
 FORMAT:FORMATTED              ACCESS:SEQUENTIAL          

 OPENING Agwater1.sg8
 FILE TYPE:DATA   UNIT   90   STATUS:UNKNOWN
 FORMAT:FORMATTED              ACCESS:SEQUENTIAL          

 OPENING Agwater1.sg9
 FILE TYPE:DATA   UNIT   91   STATUS:UNKNOWN
 FORMAT:FORMATTED              ACCESS:SEQUENTIAL          

 BAS -- BASIC PACKAGE, VERSION 1.1.4, 4/01/2018 INPUT READ FROM UNIT   75
 
 MODFLOW was compiled using mixed precision
 Precision of REAL variables:           6
 Precision of DOUBLE PRECISION variables:          15

 DISCRETIZATION INPUT DATA READ FROM UNIT    8
 #Test problem 2-- Discretization input
 #Example problem using the UZF1 Package
    1 LAYERS        15 ROWS        10 COLUMNS
   49 STRESS PERIOD(S) IN SIMULATION
 MODEL TIME UNIT IS SECONDS
 MODEL LENGTH UNIT IS FEET
  Confining bed flag for each layer:
   0

                     DELR =   5000.00    

                     DELC =   5000.00    



           TOP ELEVATION OF LAYER 1
 READING ON UNIT    8 WITH FORMAT: (10F7.0)            

            1           2           3           4           5           6           7           8           9          10
 ........................................................................................................................
   1    1105.       1105.       0.000       0.000       0.000       0.000       0.000       0.000       0.000       0.000    
   2    1105.       1095.       1105.       0.000       0.000       1100.       1100.       1110.       0.000       0.000    
   3    0.000       1100.       1085.       1080.       1078.       1076.       1073.       1090.       0.000       0.000    
   4    1110.       1100.       1090.       1085.       1076.       1080.       1080.       1070.       1100.       0.000    
   5    1110.       1100.       1085.       1080.       1078.       1074.       1077.       1066.       1075.       1080.    
   6    1105.       1095.       1080.       1077.       1073.       1069.       1070.       1063.       1085.       1095.    
   7    1105.       1090.       1075.       1072.       1070.       1065.       1065.       1069.       1090.       0.000    
   8    0.000       1080.       1070.       1068.       1063.       1060.       1063.       1067.       1090.       0.000    
   9    0.000       1075.       1065.       1062.       1058.       1052.       1055.       1065.       1090.       0.000    
  10    0.000       1070.       1060.       1055.       1046.       1046.       1044.       1060.       1088.       1100.    
  11    0.000       1055.       1050.       1045.       1041.       1042.       1040.       1050.       1075.       0.000    
  12    1027.       1028.       1028.       1032.       1032.       1033.       1032.       1040.       1060.       0.000    
  13    997.0       1004.       1008.       1014.       1020.       1027.       1032.       1038.       1050.       0.000    
  14    0.000       1030.       1040.       1045.       1050.       1050.       1050.       1050.       1044.       0.000    
  15    0.000       0.000       1080.       1080.       1080.       1080.       0.000       0.000       0.000       0.000    



             MODEL LAYER BOTTOM EL. FOR LAYER   1
 READING ON UNIT    8 WITH FORMAT: (10F7.0)            

            1           2           3           4           5           6           7           8           9          10
 ........................................................................................................................
   1    1000.       1000.       0.000       0.000       0.000       0.000       0.000       0.000       0.000       0.000    
   2    1000.       900.0       900.0       0.000       0.000       950.0       950.0       950.0       0.000       0.000    
   3    0.000       850.0       670.0       680.0       680.0       770.0       770.0       890.0       0.000       0.000    
   4    925.0       850.0       650.0       650.0       650.0       680.0       740.0       850.0       950.0       0.000    
   5    925.0       800.0       650.0       600.0       600.0       600.0       650.0       720.0       850.0       950.0    
   6    925.0       800.0       650.0       600.0       550.0       600.0       650.0       720.0       850.0       970.0    
   7    925.0       800.0       650.0       600.0       550.0       600.0       650.0       720.0       950.0       0.000    
   8    0.000       850.0       700.0       650.0       570.0       600.0       700.0       850.0       950.0       0.000    
   9    0.000       850.0       700.0       650.0       540.0       580.0       700.0       850.0       950.0       0.000    
  10    0.000       850.0       700.0       630.0       530.0       580.0       650.0       800.0       900.0       950.0    
  11    0.000       850.0       700.0       620.0       580.0       620.0       700.0       800.0       900.0       0.000    
  12    900.0       830.0       710.0       640.0       600.0       650.0       700.0       800.0       900.0       0.000    
  13    900.0       810.0       750.0       700.0       650.0       700.0       750.0       800.0       900.0       0.000    
  14    0.000       950.0       850.0       850.0       850.0       850.0       850.0       850.0       850.0       0.000    
  15    0.000       0.000       950.0       950.0       950.0       950.0       0.000       0.000       0.000       0.000    


 STRESS PERIOD     LENGTH       TIME STEPS     MULTIPLIER FOR DELT    SS FLAG
 ----------------------------------------------------------------------------
        1         86400.00          1                    1.000         SS
        2         2630000.         30                    1.000         TR
        3         2630000.         30                    1.000         TR
        4         2630000.         30                    1.000         TR
        5         2630000.         30                    1.000         TR
        6         2630000.         30                    1.000         TR
        7         2630000.         30                    1.000         TR
        8         2630000.         30                    1.000         TR
        9         2630000.         30                    1.000         TR
       10         2630000.         30                    1.000         TR
       11         2630000.         30                    1.000         TR
       12         2630000.         30                    1.000         TR
       13         2630000.         30                    1.000         TR
       14         2630000.         30                    1.000         TR
       15         2630000.         30                    1.000         TR
       16         2630000.         30                    1.000         TR
       17         2630000.         30                    1.000         TR
       18         2630000.         30                    1.000         TR
       19         2630000.         30                    1.000         TR
       20         2630000.         30                    1.000         TR
       21         2630000.         30                    1.000         TR
       22         2630000.         30                    1.000         TR
       23         2630000.         30                    1.000         TR
       24         2630000.         30                    1.000         TR
       25         2630000.         30                    1.000         TR
       26         2630000.         30                    1.000         TR
       27         2630000.         30                    1.000         TR
       28         2630000.         30                    1.000         TR
       29         2630000.         30                    1.000         TR
       30         2630000.         30                    1.000         TR
       31         2630000.         30                    1.000         TR
       32         2630000.         30                    1.000         TR
       33         2630000.         30                    1.000         TR
       34         2630000.         30                    1.000         TR
       35         2630000.         30                    1.000         TR
       36         2630000.         30                    1.000         TR
       37         2630000.         30                    1.000         TR
       38         2630000.         30                    1.000         TR
       39         2630000.         30                    1.000         TR
       40         2630000.         30                    1.000         TR
       41         2630000.         30                    1.000         TR
       42         2630000.         30                    1.000         TR
       43         2630000.         30                    1.000         TR
       44         2630000.         30                    1.000         TR
       45         2630000.         30                    1.000         TR
       46         2630000.         30                    1.000         TR
       47         2630000.         30                    1.000         TR
       48         2630000.         30                    1.000         TR
       49         2630000.         30                    1.000         TR

 COMBINED STEADY-STATE AND TRANSIENT SIMULATION



 
 #Test Simulation 2-- Example problem using the UZF1 Package                     
 #Modified from example Problem 1 of SFR1 documentation report                   
 THE FREE FORMAT OPTION HAS BEEN SELECTED



                     BOUNDARY ARRAY FOR LAYER   1
 READING ON UNIT   75 WITH FORMAT: (20I4)              

                1           2           3           4           5           6           7           8           9          10
 ............................................................................................................................
   1            1           1           0           0           0           0           0           0           0           0
   2            1           1           1           0           0           1           1           1           0           0
   3            0           1           1           1           1           1           1           1           0           0
   4            1           1           1           1           1           1           1           1           1           0
   5            1           1           1           1           1           1           1           1           1           1
   6            1           1           1           1           1           1           1           1           1           1
   7            1           1           1           1           1           1           1           1           1           0
   8            0           1           1           1           1           1           1           1           1           0
   9            0           1           1           1           1           1           1           1           1           0
  10            0           1           1           1           1           1           1           1           1           1
  11            0           1           1           1           1           1           1           1           1           0
  12            1           1           1           1           1           1           1           1           1           0
  13            1           1           1           1           1           1           1           1           1           0
  14            0           1           1           1           1           1           1           1           1           0
  15            0           0           1           1           1           1           0           0           0           0

 AQUIFER HEAD WILL BE SET TO   6999.0     AT ALL NO-FLOW NODES (IBOUND=0).



                       INITIAL HEAD FOR LAYER   1
 READING ON UNIT   75 WITH FORMAT: (10F8.0)            

            1           2           3           4           5           6           7           8           9          10
 ........................................................................................................................
   1    1093.       1089.       6999.       6999.       6999.       6999.       6999.       6999.       6999.       6999.    
   2    1090.       1087.       1081.       6999.       6999.       1072.       1071.       1071.       6999.       6999.    
   3    6999.       1079.       1078.       1074.       1072.       1071.       1069.       1068.       6999.       6999.    
   4    1069.       1071.       1070.       1067.       1065.       1064.       1064.       1066.       1066.       6999.    
   5    1065.       1064.       1063.       1062.       1061.       1061.       1060.       1062.       1066.       1068.    
   6    1060.       1058.       1057.       1056.       1056.       1057.       1057.       1059.       1062.       1066.    
   7    1056.       1053.       1052.       1051.       1051.       1052.       1053.       1055.       1056.       6999.    
   8    6999.       1046.       1046.       1046.       1046.       1046.       1048.       1050.       1050.       6999.    
   9    6999.       1039.       1039.       1039.       1040.       1041.       1042.       1043.       1044.       6999.    
  10    6999.       1031.       1032.       1033.       1034.       1035.       1037.       1038.       1039.       1042.    
  11    6999.       1021.       1023.       1027.       1029.       1030.       1032.       1034.       1036.       6999.    
  12    1001.       1009.       1015.       1020.       1023.       1026.       1029.       1030.       1034.       6999.    
  13    994.5      1000.0       1007.       1013.       1019.       1024.       1029.       1034.       1036.       6999.    
  14    6999.       1004.       1009.       1014.       1019.       1024.       1029.       1035.       1039.       6999.    
  15    6999.       6999.       1012.       1015.       1019.       1022.       6999.       6999.       6999.       6999.    

 OUTPUT CONTROL IS SPECIFIED ONLY AT TIME STEPS FOR WHICH OUTPUT IS DESIRED
 HEADS WILL BE SAVED WITH FORMAT: (10F10.3)           
 SAVED HEADS WILL BE LABELED
 COMPACT CELL-BY-CELL BUDGET FILES WILL BE WRITTEN
 HEAD PRINT FORMAT CODE IS   4    DRAWDOWN PRINT FORMAT CODE IS   0
 HEADS WILL BE SAVED ON UNIT   62    DRAWDOWNS WILL BE SAVED ON UNIT    0
 # NWT Input File
 # Test Problem 3 for MODFLOW-NWT
 #HEADTOL  FLUXTOL MAXITEROUT THICKFACT LINMETH IPRNWT IBOTAV OPTIONS DBDREDUCE DBDINCREASE DBDGAMMA MOMFACT BACKFLAG MAXBACKITER BACKTOL BACKREDUCE

 NWT1 -- Newton Solver, VERSION 1.1.4, 4/01/2018
         INPUT READ FROM UNIT 13

 SPECIFIED OPTION:
 SOLVER INPUT VALUES ARE SPECIFIED BY USER
 ***XMD linear solver will be used***
 
   CONVERGENCE CRITERION OF   0.100000E-03 FOR HEAD SOLUTION
   AND A TOLERANCE OF   0.100000E+01 FOR FLOW SOLUTION AND 
   A MAXIMUM OF   500 OUTER ITERATIONS. 


   D-B-D REDUCTION FACTOR OF    0.970000E+00 AND 
   A D-B-D INCREASE FACTOR OF    0.100000E-04 AND 
   A D-B-D RELAXATION OF    0.000000E+00 AND 
   A MOMENTUM FACTOR OF    0.100000E+00 .


 ***BACKTRACKING IS INACTIVE***
 XMD -- LINEAR SOLUTION BY XMD PACKAGE VERSION 1.30
     BY MOTOMU IBARAKI, OHIO STATE UNIVERSITY, COLOMBUS, OH
                 INPUT READ FROM UNIT 13
 ACCELERATION METHOD                    (IACL) =         1
 NODE ORDERING FLAG                   (NORDER) =         0
 LEVEL OF FILL                         (LEVEL) =         7
 MAXIMUM NUMBER OF ORTHOGONALIZATIONS  (NORTH) =         7
 INDEX FOR USING REDUCED SYSTEM      (IREDSYS) =         1
 RESID. REDUCTION CONVERGE CRITERION  (RRCTOL) =  0.000000E+00
 INDEX FOR USING DROP TOLERANCE     (IDROPTOL) =         1
 DROP TOLERANCE VALUE                  (EPSRN) =  0.500000E-02
 CONVERGENCE CRITERIA OF           (HCLOSEXMD) =  0.100000E-03
 MAX. NUMBER OF LINEAR ITERATIONS  (MXITERXMD) =        50


 UPW1 -- UPSTREAM WEIGHTING FLOW PACKAGE, VERSION 1.1.4, 4/01/2018
         INPUT READ FROM UNIT  7

 #Layer-Property Flow Package input for test simulation 2
 CELL-BY-CELL FLOWS WILL BE SAVED ON UNIT  102
 No named parameters

   LAYER FLAGS:
 LAYER       LAYTYP          LAYAVG    CHANI           LAYVKA           LAYWET
 ---------------------------------------------------------------------------
    1             1             0     1.000E+00             0             0

   INTERPRETATION OF LAYER FLAGS:
                        INTERBLOCK     HORIZONTAL    DATA IN
         LAYER TYPE   TRANSMISSIVITY   ANISOTROPY   ARRAY VKA   WETTABILITY
 LAYER   (LAYTYP)        (LAYAVG)      (CHANI)     (LAYVKA)       (LAYWET)
 ---------------------------------------------------------------------------
    1   CONVERTIBLE      HARMONIC     1.000E+00    VERTICAL K  NON-WETTABLE



              HYD. COND. ALONG ROWS FOR LAYER   1
 READING ON UNIT    7 WITH FORMAT: (10F5.0)            

            1           2           3           4           5           6           7           8           9          10
 ........................................................................................................................
   1   2.0000E-03  2.0000E-03   0.000       0.000       0.000       0.000       0.000       0.000       0.000       0.000    
   2   4.0000E-04  2.0000E-03  2.0000E-03   0.000       0.000      4.0000E-04  4.0000E-04  4.0000E-04   0.000       0.000    
   3    0.000      4.0000E-04  2.0000E-03  2.0000E-03  4.0000E-04  4.0000E-04  4.0000E-04  4.0000E-04   0.000       0.000    
   4   4.0000E-04  4.0000E-04  4.0000E-04  2.0000E-03  2.0000E-03  2.0000E-03  4.0000E-04  4.0000E-04  4.0000E-04   0.000    
   5   4.0000E-04  4.0000E-04  4.0000E-04  2.0000E-03  2.0000E-03  2.0000E-03  2.0000E-03  2.0000E-03  2.0000E-03  2.0000E-03
   6   4.0000E-04  4.0000E-04  4.0000E-04  2.0000E-03  2.0000E-03  2.0000E-03  2.0000E-03  2.0000E-03  4.0000E-04  4.0000E-04
   7   4.0000E-04  4.0000E-04  4.0000E-04  2.0000E-03  2.0000E-03  2.0000E-03  2.0000E-03  2.0000E-03  4.0000E-04   0.000    
   8    0.000      4.0000E-04  4.0000E-04  2.0000E-03  2.0000E-03  2.0000E-03  2.0000E-03  4.0000E-04  4.0000E-04   0.000    
   9    0.000      4.0000E-04  4.0000E-04  2.0000E-03  2.0000E-03  2.0000E-03  2.0000E-03  4.0000E-04  4.0000E-04   0.000    
  10    0.000      4.0000E-04  4.0000E-04  2.0000E-03  2.0000E-03  2.0000E-03  2.0000E-03  4.0000E-04  4.0000E-04  4.0000E-04
  11    0.000      4.0000E-04  4.0000E-04  2.0000E-03  2.0000E-03  2.0000E-03  2.0000E-03  4.0000E-04  4.0000E-04   0.000    
  12   4.0000E-04  4.0000E-04  2.0000E-03  2.0000E-03  2.0000E-03  2.0000E-03  2.0000E-03  4.0000E-04  4.0000E-04   0.000    
  13   2.0000E-03  2.0000E-03  2.0000E-03  2.0000E-03  2.0000E-03  2.0000E-03  2.0000E-03  2.0000E-03  2.0000E-03   0.000    
  14    0.000      4.0000E-04  4.0000E-04  4.0000E-04  4.0000E-04  4.0000E-04  4.0000E-04  4.0000E-04  2.0000E-03   0.000    
  15    0.000       0.000      4.0000E-04  4.0000E-04  4.0000E-04  4.0000E-04   0.000       0.000       0.000       0.000    

      VERTICAL HYD. COND. =  1.000000E-06 FOR LAYER   1

         SPECIFIC STORAGE =  1.000000E-06 FOR LAYER   1



                     SPECIFIC YIELD FOR LAYER   1
 READING ON UNIT    7 WITH FORMAT: (10F5.0)            

            1           2           3           4           5           6           7           8           9          10
 ........................................................................................................................
   1   0.2000      0.2000       0.000       0.000       0.000       0.000       0.000       0.000       0.000       0.000    
   2   0.1000      0.2000      0.2000       0.000       0.000      0.1000      0.1000      0.1000       0.000       0.000    
   3    0.000      0.1000      0.2000      0.2000      0.1000      0.1000      0.1000      0.1000       0.000       0.000    
   4   0.1000      0.1000      0.1000      0.2000      0.2000      0.2000      0.1000      0.1000      0.1000       0.000    
   5   0.1000      0.1000      0.1000      0.2000      0.2000      0.2000      0.2000      0.2000      0.2000      0.2000    
   6   0.1000      0.1000      0.1000      0.2000      0.2000      0.2000      0.2000      0.2000      0.1000      0.1000    
   7   0.1000      0.1000      0.1000      0.2000      0.2000      0.2000      0.2000      0.2000      0.1000       0.000    
   8    0.000      0.1000      0.1000      0.2000      0.2000      0.2000      0.2000      0.1000      0.1000       0.000    
   9    0.000      0.1000      0.1000      0.2000      0.2000      0.2000      0.2000      0.1000      0.1000       0.000    
  10    0.000      0.1000      0.1000      0.2000      0.2000      0.2000      0.2000      0.1000      0.1000      0.1000    
  11    0.000      0.1000      0.1000      0.2000      0.2000      0.2000      0.2000      0.1000      0.1000       0.000    
  12   0.1000      0.1000      0.2000      0.2000      0.2000      0.2000      0.2000      0.1000      0.1000       0.000    
  13   0.2000      0.2000      0.2000      0.2000      0.2000      0.2000      0.2000      0.2000      0.2000       0.000    
  14    0.000      0.1000      0.1000      0.1000      0.1000      0.1000      0.1000      0.1000      0.2000       0.000    
  15    0.000       0.000      0.1000      0.1000      0.1000      0.1000       0.000       0.000       0.000       0.000    

 GHB -- GENERAL-HEAD BOUNDARY PACKAGE, VERSION 7, 5/2/2005
         INPUT READ FROM UNIT   17
 No named parameters
 MAXIMUM OF      2 ACTIVE GHB CELLS AT ONE TIME
 CELL-BY-CELL FLOWS WILL BE PRINTED WHEN ICBCFL NOT 0


     0 GHB parameters

 SFR7 -- STREAMFLOW ROUTING PACKAGE, VERSION 1.0.5, 2012-04-05
         INPUT READ FROM UNIT  15
 #SFR2 Package input for Testing supplimental pumping and irrigation
 No named parameters

 PROCESSING SFR2 OPTIONS
 
          2 Specified inflow files will be read with a maximum of       1446 row entries per file
 
Stream loss will be calculated as a factor of the streambed hydraulic conductivity. Multiplication factor is equal to     0.1000000015E+00

 END PROCESSING SFR2 OPTIONS
 


 NUMBER OF STREAM REACHES IS   38

 NUMBER OF STREAM SEGMENTS IS    9

 NUMBER OF STREAM PARAMETERS IS    0

 NUMBER OF STREAM SEGMENTS DEFINED USING PARAMETERS IS              0

 MAXIMUM ERROR FOR STREAM LEAKAGE RATES IS  1.00E-06

 CONSTANT FOR MANNINGS EQUATION IS  1.4860E+00



 STREAM OUTPUT WILL BE WRITTEN TO FILE ON UNIT   81


   STREAM NETWORK DESCRIPTION: 

   LAYER    ROW    COL   SEGMENT   REACH     LENGTH
                          NUMBER   NUMBER    IN CELL        
   --------------------------------------------------
      1      1      1       1        1    4.5000E+03
      1      2      2       1        2    7.0000E+03
      1      3      3       1        3    6.0000E+03
      1      3      4       1        4    5.5500E+03
      1      4      5       2        1    6.5000E+03
      1      5      6       2        2    5.0000E+03
      1      6      6       2        3    5.0000E+03
      1      7      6       2        4    5.0000E+03
      1      8      6       2        5    5.0000E+03
      1      3      5       3        1    5.0000E+03
      1      3      6       3        2    5.0000E+03
      1      3      7       3        3    4.5000E+03
      1      4      8       3        4    6.0000E+03
      1      5      8       3        5    5.0000E+03
      1      6      8       3        6    2.0000E+03
      1      5     10       4        1    2.5000E+03
      1      5      9       4        2    5.0000E+03
      1      6      8       4        3    3.5000E+03
      1      6      8       5        1    4.0000E+03
      1      7      7       5        2    5.0000E+03
      1      8      7       5        3    3.5000E+03
      1      8      6       5        4    2.5000E+03
      1      9      6       6        1    5.0000E+03
      1     10      7       6        2    5.0000E+03
      1     11      7       6        3    5.0000E+03
      1     12      7       6        4    5.0000E+03
      1     13      7       6        5    2.0000E+03
      1     14      9       7        1    5.0000E+03
      1     13      8       7        2    5.5000E+03
      1     13      7       7        3    5.0000E+03
      1     13      6       8        1    5.0000E+03
      1     13      5       8        2    5.0000E+03
      1     13      4       8        3    5.0000E+03
      1     13      3       8        4    5.0000E+03
      1     13      2       8        5    5.0000E+03
      1     13      1       8        6    3.0000E+03
      1      8      6       9        1    3.0000E+03
      1      8      5       9        2    3.0000E+03




 UZF1 -- UNSATURATED FLOW PACKAGE, VERSION 1.4, 02/06/2012
         INPUT READ FROM UNIT 19
 #UZF Package input for test simulation 2
 No named parameters

 PROCESSING UZF OPTIONS
 
 
 INITIAL WATER CONTENT (THTI) WILL BE 
READ FOR THE FIRST SS OR TR STRESS PERIOD
 
 
 RESIDUAL WATER CONTENT (THTR) WILL BE 
READ AND USED FOR THE FIRST TRANSIENT STRESS 
PERIOD
 
 
AIR ENTRY PRESSURE AND ROOT PRESSURE WILL BE 
SPECIFIED BY USER AND UZ ET WILL BE SIMULATED 
AS PRESSURE-HEAD DEPENDENT
 
 
INFILTRATION WILL BE REJECTED USING 
LAND SURFACE K
 
 
HYDRAULIC CONDUCTIVITY OF LAND SURFACE 
WILL BE READ
 

 END PROCESSING UZF OPTIONS



            AREAL EXTENT OF UZ FLOW
 READING ON UNIT   19 WITH FORMAT: (20I4)              

                1           2           3           4           5           6           7           8           9          10
 ............................................................................................................................
   1            1           1           0           0           0           0           0           0           0           0
   2            1           1           1           0           0           1           1           1           0           0
   3            0           1           1           1           1           1           1           1           0           0
   4            1           1           1           1           1           1           1           1           1           0
   5            1           1           1           1           1           1           1           1           1           1
   6            1           1           1           1           1           1           1           1           1           1
   7            1           1           1           1           1           1           1           1           1           0
   8            0           1           1           1           1           1           1           1           1           0
   9            0           1           1           1           1           1           1           1           1           0
  10            0           1           1           1           1           1           1           1           1           1
  11            0           1           1           1           1           1           1           1           1           0
  12            1           1           1           1           1           1           1           1           1           0
  13            1           1           1           1           1           1           1           1           1           0
  14            0           1           1           1           1           1           1           1           1           0
  15            0           0           1           1           1           1           0           0           0           0
 OPTION 1 -- RECHARGE IN UZF TO TOP LAYER ONLY 



            ROUTING OVERLAND RUNOFF
 READING ON UNIT   19 WITH FORMAT: (20I4)              

                1           2           3           4           5           6           7           8           9          10
 ............................................................................................................................
   1            1           1           0           0           0           0           0           0           0           0
   2            1           1           1           0           0           3           3           3           0           0
   3            0           1           1           1           3           3           3           3           0           0
   4            8           8           2           2           2           2           2           3           3           0
   5            8           8           8           8           2           2           2           3           4           4
   6            8           8           8           8           8           2           2           4           4           4
   7            8           8           8           8           8           2           5           5           5           0
   8            0           8           8           8           8           2           5           5           5           0
   9            0           8           8           8           8           6           6           6           6           0
  10            0           8           8           8           8           6           6           6           6           6
  11            0           8           8           8           8           8           6           6           7           0
  12            8           8           8           8           8           8           6           7           7           0
  13            8           8           8           8           8           8           7           7           7           0
  14            0           8           8           8           8           8           7           7           7           0
  15            0           0           8           8           8           8           0           0           0           0



               SATURATED VERTICAL K
 READING ON UNIT   19 WITH FORMAT: (10F4.0)            

            1           2           3           4           5           6           7           8           9          10
 ........................................................................................................................
   1   4.6000E-05  4.6000E-05   0.000       0.000       0.000       0.000       0.000       0.000       0.000       0.000    
   2   4.6000E-05  4.6000E-05  4.6000E-05   0.000       0.000      4.6000E-05  4.6000E-05  4.6000E-05   0.000       0.000    
   3    0.000      4.6000E-05  4.6000E-05  4.6000E-05  4.6000E-05  4.6000E-05  4.6000E-05  4.6000E-05   0.000       0.000    
   4   4.6000E-05  4.6000E-05  4.6000E-05  4.6000E-05  4.6000E-05  4.6000E-05  4.6000E-05  4.6000E-05  4.6000E-05   0.000    
   5   4.6000E-05  4.6000E-05  4.6000E-05  4.6000E-05  4.6000E-05  4.6000E-05  4.6000E-05  4.6000E-05  4.6000E-05  4.6000E-05
   6   4.6000E-05  4.6000E-05  4.6000E-05  4.6000E-05  4.6000E-05  4.6000E-05  4.6000E-05  4.6000E-05  4.6000E-05  4.6000E-05
   7   4.6000E-05  4.6000E-05  4.6000E-05  4.6000E-05  4.6000E-05  4.6000E-05  4.6000E-05  4.6000E-05  4.6000E-05   0.000    
   8    0.000      4.6000E-05  4.6000E-05  4.6000E-05  4.6000E-05  4.6000E-05  4.6000E-05  4.6000E-05  4.6000E-05   0.000    
   9    0.000      4.6000E-05  4.6000E-05  4.6000E-05  4.6000E-05  4.6000E-05  4.6000E-05  4.6000E-05  4.6000E-05   0.000    
  10    0.000      4.6000E-05  4.6000E-05  4.6000E-05  4.6000E-05  4.6000E-05  4.6000E-05  4.6000E-05  4.6000E-05  4.6000E-05
  11    0.000      4.6000E-05  4.6000E-05  4.6000E-05  4.6000E-05  4.6000E-05  4.6000E-05  4.6000E-05  4.6000E-05   0.000    
  12   4.6000E-05  4.6000E-05  4.6000E-05  4.6000E-05  4.6000E-05  4.6000E-05  4.6000E-05  4.6000E-05  4.6000E-05   0.000    
  13   4.6000E-05  4.6000E-05  4.6000E-05  4.6000E-05  4.6000E-05  4.6000E-05  4.6000E-05  4.6000E-05  4.6000E-05   0.000    
  14    0.000      4.6000E-05  4.6000E-05  4.6000E-05  4.6000E-05  4.6000E-05  4.6000E-05  4.6000E-05  4.6000E-05   0.000    
  15    0.000       0.000      4.6000E-05  4.6000E-05  4.6000E-05  4.6000E-05   0.000       0.000       0.000       0.000    



            LAND SURFACE VERTICAL K
 READING ON UNIT   19 WITH FORMAT: (10F4.0)            

            1           2           3           4           5           6           7           8           9          10
 ........................................................................................................................
   1   1.0000E-05  1.0000E-05   0.000       0.000       0.000       0.000       0.000       0.000       0.000       0.000    
   2   1.0000E-05  1.0000E-05  1.0000E-05   0.000       0.000      1.0000E-05  1.0000E-05  1.0000E-05   0.000       0.000    
   3    0.000      1.0000E-05  1.0000E-05  1.0000E-05  1.0000E-05  1.0000E-05  1.0000E-05  1.0000E-05   0.000       0.000    
   4   1.0000E-05  1.0000E-05  1.0000E-05  1.0000E-05  1.0000E-05  1.0000E-05  1.0000E-05  1.0000E-05  1.0000E-05   0.000    
   5   1.0000E-05  1.0000E-05  1.0000E-05  1.0000E-05  1.0000E-05  1.0000E-05  1.0000E-05  1.0000E-05  1.0000E-05  1.0000E-05
   6   1.0000E-05  1.0000E-05  1.0000E-05  1.0000E-05  1.0000E-05  1.0000E-05  1.0000E-05  1.0000E-05  1.0000E-05  1.0000E-05
   7   1.0000E-05  1.0000E-05  1.0000E-05  1.0000E-05  1.0000E-05  1.0000E-05  1.0000E-05  1.0000E-05  1.0000E-05   0.000    
   8    0.000      1.0000E-05  1.0000E-05  1.0000E-05  1.0000E-05  1.0000E-05  1.0000E-05  1.0000E-05  1.0000E-05   0.000    
   9    0.000      1.0000E-05  1.0000E-05  1.0000E-05  1.0000E-05  1.0000E-05  1.0000E-05  1.0000E-05  1.0000E-05   0.000    
  10    0.000      1.0000E-05  1.0000E-05  1.0000E-05  1.0000E-05  1.0000E-05  1.0000E-05  1.0000E-05  1.0000E-05  1.0000E-05
  11    0.000      1.0000E-05  1.0000E-05  1.0000E-05  1.0000E-05  1.0000E-05  1.0000E-05  1.0000E-05  1.0000E-05   0.000    
  12   1.0000E-05  1.0000E-05  1.0000E-05  1.0000E-05  1.0000E-05  1.0000E-05  1.0000E-05  1.0000E-05  1.0000E-05   0.000    
  13   1.0000E-05  1.0000E-05  1.0000E-05  1.0000E-05  1.0000E-05  1.0000E-05  1.0000E-05  1.0000E-05  1.0000E-05   0.000    
  14    0.000      1.0000E-05  1.0000E-05  1.0000E-05  1.0000E-05  1.0000E-05  1.0000E-05  1.0000E-05  1.0000E-05   0.000    
  15    0.000       0.000      1.0000E-05  1.0000E-05  1.0000E-05  1.0000E-05   0.000       0.000       0.000       0.000    

     BROOKS-COREY EPSILON =   7.50000    

  SATURATED WATER CONTENT =  0.380000    

   RESIDUAL WATER CONTENT =  0.200000    

    INITIAL WATER CONTENT =  0.200000    

UNSATURATED FLOW RESULTS WILL BE PRINTED TO SEPARATE FILES FOR SELECTED MODEL CELLS, AND TIME STEPS AS DEFINED BY OUTPUT CONTROL PACKAGE 

SELECTED MODEL CELLS ARE: 
 ROW NUMBER  COLUMN NUMBER  FORTRAN UNIT NUMBER  OUTPUT OPTION


       6             4                 65                 1
       6             5                 66                 2
       8             4                 67                 3
       0             0                 68                 4



   9 GAGING STATIONS WERE SPECIFIED.
     (Lakes are identified by a negative value of the Lake Number)
     RECORDS WILL BE WRITTEN TO SEPARATE OUTPUT FILES REPRESENTED BY FOLLOWING UNIT NUMBERS:

 Stream Gages:
  GAGE #   SEGMENT   REACH   UNIT   OUTTYPE
       1       1       4      83       1
       2       2       5      84       1
       3       3       5      85       1
       4       4       3      86       1
       5       5       4      87       4
       6       6       5      88       4
       7       7       3      89       4
       8       8       6      90       4
       9       9       1      91       5





 AG -- AG PACKAGE FOR NWT VERSION 1.1.3,  8/01/2017 INPUT READ FROM UNIT   57
 # AG options

 PROCESSING AG OPTIONS
 
 AGRICULTURAL DEMANDS WILL BE CALCULATED USING ET DEFICIT
 
 
 OPTION TO APPLY SURFACE WATER AS IRRIGATION IS ACTIVE. DIVERTED SURFACE WATER WILL BE APPLIED TO          1 CELLS/RHUS.
 
 
 OPTION TO PUMP SUPPLEMENTARY WATER FOR SURFACE DIVERSION SHORTFALL IS ACTIVATED.  A TOTAL OF             6 SUPPLEMENTAL WELLS ARE ACTIVE
 
 
 OPTION TO APPLY PUMPED WATER AS IRRIGATION IS ACTIVE. PUMPED IRRIGATION WATER WILL BE APPLIED TO          6 CELLS/RHUS.
 
 
 THE MAXIMUM NUMBER OF WELLS FOR SUPPLEMENTING DIVERSIONS OR APPLYING IRRIGATION IS          6 WELLS.
 
 
  UNFORMATTED CELL BY CELL RATES FOR SUP AND IRR WELLS WILL BE SAVED TO FILE UNIT NUMBER         -2
 
 
  UNFORMATTED CELL BY CELL RATES FOR SUP AND IRR WELLS WILL BE SAVED TO FILE UNIT NUMBER         -2
 
 
  UNFORMATTED CELL BY CELL RATES FOR SUP AND IRR WELLS WILL BE SAVED TO FILE UNIT NUMBER         -2
 
 
  UNFORMATTED CELL BY CELL RATES FOR SUP AND IRR WELLS WILL BE SAVED TO FILE UNIT NUMBER         -2
 
 
  GROUND WATER IRRIGATION, POTENTIAL AND ACTUAL ET WILL BE SAVED TO TIMES SERIES OUTPUT FILES.
 
 
  SURFACE WATER IRRIGATION, POTENTIAL AND ACTUAL ET WILL BE SAVED TO TIMES SERIES OUTPUT FILES.
 
 
  SURFACE WATER IRRIGATION, POTENTIAL AND ACTUAL ET WILL BE SAVED TO TIMES SERIES OUTPUT FILES.
 

 END PROCESSING AG OPTIONS
 # AG time series

 PROCESSING TIME SERIES

 FINISHED READING TIME SERIES
 A total number of          1 AG output time series files were activated for SURFACE WATER 
 A total number of          1 AG output time series files were activated for GROUNDWATER 
 A total number of          1 AG output time series files were activated for SURFACE WATER ET
 A total number of          0 AG output time series files were activated for GROUNDWATER ET
1
                            STRESS PERIOD NO.    1, LENGTH =   86400.00    
                            -----------------------------------------------

                              NUMBER OF TIME STEPS =     1

                               MULTIPLIER FOR DELT =     1.000

                            INITIAL TIME STEP SIZE =   86400.00    

 BOUND. NO. LAYER   ROW   COL     STAGE      CONDUCTANCE         
 ----------------------------------------------------------------
      1      1     13      1       988.0          0.3800E-01
      2      1     14      9       1045.          0.3800E-01

      2 GHB CELLS



 CLASSIFICATION & COUNT OF STREAM SEGMENTS BASED ON SOURCE OF INFLOW:

                HEADWATER     DIVERSION     RECEIVES TRIBUTARY FLOW
                ---------     ---------     -----------------------
                     3              2               4



                    INPUT DATA FOR EACH STREAM SEGMENT
 ---------------------------------------------------------------------------------------------

 SEGMENT    SEG.     INFLOW   OVERLAND   STREAM    STREAM   ICALC  OUTFLOW  DIVERSION PRIORITY
    NO.    LENGTH     RATE     RUNOFF      ET       PPT.    METH.  TO SEG.  FROM SEG.    NO.

      1  2.305E+04 2.500E+01 0.000E+00 0.000E+00 0.000E+00    4        2        0        0
      2  2.650E+04 0.000E+00 0.000E+00 0.000E+00 0.000E+00    1        6        0        0
      3  2.750E+04 2.000E+00 0.000E+00 0.000E+00 0.000E+00    0        5        1        0
      4  1.100E+04 1.000E+01 0.000E+00 0.000E+00 0.000E+00    1        5        0        0
      5  1.500E+04 0.000E+00 0.000E+00 0.000E+00 0.000E+00    3        6        0        0
      6  2.200E+04 0.000E+00 0.000E+00 0.000E+00 0.000E+00    1        8        0        0
      7  1.550E+04 1.500E+02 0.000E+00 0.000E+00 0.000E+00    2        8        0        0
      8  2.800E+04 0.000E+00 0.000E+00 0.000E+00 0.000E+00    2        0        0        0
      9  6.000E+03 0.000E+00 0.000E+00 0.000E+00 0.000E+00    1        0        2        0


         STREAMBED PROPERTIES AND STREAM DIMENSIONS

 SEGMENT     BED HYD. COND.      BED THICKNESS     ELEV.-TOP OF BED     WIDTH OF STREAM     DEPTH OF STREAM    STREAM ROUGHNESS
    No.     UPPER     LOWER     UPPER     LOWER     UPPER     LOWER     UPPER     LOWER     UPPER     LOWER   CHANNEL      BANK

     1  3.000E-05 3.000E-05 3.000E+00 3.000E+00 1.095E+03 1.075E+03
     2  3.000E-05 3.000E-05 3.000E+00 3.000E+00 1.075E+03 1.050E+03 1.200E+01 1.200E+01                     3.000E-02
     3  3.000E-05 3.000E-05 2.000E+00 2.000E+00 1.075E+03 1.060E+03 1.000E+01 6.000E+00 2.000E+00 1.000E+00
     4  3.000E-05 3.000E-05 3.000E+00 3.000E+00 1.080E+03 1.060E+03 1.000E+01 1.000E+01                     3.000E-02
     5  3.000E-05 3.000E-05 3.000E+00 3.000E+00 1.060E+03 1.045E+03
     6  3.000E-05 3.000E-05 3.000E+00 3.000E+00 1.045E+03 1.025E+03 1.200E+01 1.200E+01                     3.000E-02
     7  6.000E-05 6.000E-05 3.000E+00 3.000E+00 1.040E+03 1.025E+03                                         2.500E-02 4.500E-02
     8  6.000E-05 6.000E-05 3.000E+00 3.000E+00 1.025E+03 9.900E+02                                         2.500E-02 4.500E-02
     9  0.000E+00 0.000E+00 3.000E+00 3.000E+00 1.079E+03 1.078E+03 4.000E+00 4.000E+00                     3.000E-02

  EIGHT POINT CROSS-SECTION DATA FOR SEGMENTS WITH ICALC = 2
    X VALUES X VALUES START FROM LEFT SIDE LOOKING DOWNSTREAM

     SEGMENT NO.        X1        X2        X3        X4        X5        X6        X7        X8
            7      0.000E+00 1.000E+01 8.000E+01 1.000E+02 1.500E+02 1.700E+02 2.400E+02 2.500E+02
            8      0.000E+00 1.000E+01 8.000E+01 1.000E+02 1.500E+02 1.700E+02 2.400E+02 2.500E+02

    Z VALUES ARE RELATIVE TO STREAMBED ELEVATION

     SEGMENT NO.          Z1        Z2        Z3        Z4        Z5        Z6        Z7        Z8
            7      2.000E+01 1.300E+01 1.000E+01 2.000E+00 0.000E+00 1.000E+01 1.300E+01 2.000E+01
            8      2.500E+01 1.700E+01 1.300E+01 4.000E+00 0.000E+00 1.000E+01 1.600E+01 2.000E+01

 STREAMFLOW RELATION WITH DEPTH IS BASED ON EQUATION Q = CDPTH*(DEPTH)**FDPTH
 STREAMFLOW RELATION WITH WIDTH IS BASED ON EQUATION Q = AWDTH*(WIDTH)**BWDTH

 SEGMENT NO.      CDPTH     FDPTH    AWDTH     BWDTH

          5 3.000E-01 3.500E-01 3.800E+00 6.000E-01

 STREAMFLOW RELATION WITH DEPTH AND WIDTH IS BASED ON TABULATED VALUES

  SEGMENT NO.   STREAMFLOW       DEPTH       WIDTH

          1     5.0000E-01   2.5000E-01   3.0000E+00
          1     1.0000E+00   4.0000E-01   3.5000E+00
          1     2.0000E+00   5.5000E-01   4.2000E+00
          1     4.0000E+00   7.0000E-01   5.3000E+00
          1     7.0000E+00   8.0000E-01   7.0000E+00
          1     1.0000E+01   9.0000E-01   8.5000E+00
          1     2.0000E+01   1.1000E+00   1.2000E+01
          1     3.0000E+01   1.2500E+00   1.4000E+01
          1     5.0000E+01   1.4000E+00   1.7000E+01
          1     7.5000E+01   1.7000E+00   2.0000E+01
          1     1.0000E+02   1.8000E+00   2.2000E+01



TABULAR INFLOWS WERE READ FOR SEGMENT      1
FROM FILE UNIT NUMBER     55

          TIMES                    INFLOWS
         0.0000000000E+00     0.3750000000E+01
         0.8640000000E+05     0.1650000000E+02
         0.2760000000E+07     0.3150000000E+02
         0.5270000000E+07     0.5775000000E+02
         0.7950000000E+07     0.2100000000E+02
         0.1050000000E+08     0.7425000000E+02
         0.1320000000E+08     0.6225000000E+02
         0.1580000000E+08     0.5625000000E+02
         0.1850000000E+08     0.4575000000E+02
         0.2120000000E+08     0.3525000000E+02
         0.2380000000E+08     0.2625000000E+02
         0.2640000000E+08     0.1950000000E+02
         0.2900000000E+08     0.1725000000E+02
         0.3170000000E+08     0.1425000000E+02
         0.3440000000E+08     0.1575000000E+02
         0.3680000000E+08     0.7350000000E+02
         0.3950000000E+08     0.5625000000E+02
         0.4210000000E+08     0.4725000000E+02
         0.4480000000E+08     0.4350000000E+02
         0.4730000000E+08     0.4050000000E+02
         0.5000000000E+08     0.2775000000E+02
         0.5270000000E+08     0.1875000000E+02
         0.5530000000E+08     0.1650000000E+02
         0.5800000000E+08     0.1575000000E+02
         0.6060000000E+08     0.1500000000E+02
         0.6320000000E+08     0.1425000000E+02
         0.6330000000E+08     0.1650000000E+02
         0.6600000000E+08     0.3150000000E+02
         0.6850000000E+08     0.5775000000E+02
         0.7120000000E+08     0.2100000000E+02
         0.7370000000E+08     0.7425000000E+02
         0.7640000000E+08     0.6225000000E+02
         0.7900000000E+08     0.5625000000E+02
         0.8170000000E+08     0.4575000000E+02
         0.8440000000E+08     0.3525000000E+02
         0.8700000000E+08     0.2625000000E+02
         0.8960000000E+08     0.1950000000E+02
         0.9220000000E+08     0.1725000000E+02
         0.9490000000E+08     0.1425000000E+02
         0.9760000000E+08     0.1575000000E+02
         0.1000000000E+09     0.7350000000E+02
         0.1030000000E+09     0.5625000000E+02
         0.1050000000E+09     0.4725000000E+02
         0.1080000000E+09     0.4350000000E+02
         0.1110000000E+09     0.4050000000E+02
         0.1130000000E+09     0.2775000000E+02
         0.1160000000E+09     0.1875000000E+02
         0.1190000000E+09     0.1650000000E+02
         0.1210000000E+09     0.1575000000E+02
         0.1240000000E+09     0.1500000000E+02
         0.1260000000E+09     0.1425000000E+02
TABULAR INFLOWS WERE READ FOR SEGMENT      9
FROM FILE UNIT NUMBER     56

          TIMES                    INFLOWS
         0.0000000000E+00     0.1000000000E+03
         0.8640000000E+05     0.1000000000E+03
         0.1730000000E+06     0.1000000000E+03
         0.2590000000E+06     0.1000000000E+03
         0.3460000000E+06     0.1000000000E+03
         0.4320000000E+06     0.1000000000E+03
         0.5180000000E+06     0.1000000000E+03
         0.6050000000E+06     0.1000000000E+03
         0.6910000000E+06     0.1000000000E+03
         0.7780000000E+06     0.1000000000E+03
         0.8640000000E+06     0.1000000000E+03
         0.9500000000E+06     0.1000000000E+03
         0.1040000000E+07     0.1000000000E+03
         0.1120000000E+07     0.1000000000E+03
         0.1210000000E+07     0.1000000000E+03
         0.1300000000E+07     0.1000000000E+03
         0.1380000000E+07     0.1000000000E+03
         0.1470000000E+07     0.1000000000E+03
         0.1560000000E+07     0.1000000000E+03
         0.1640000000E+07     0.1000000000E+03
         0.1730000000E+07     0.1000000000E+03
         0.1810000000E+07     0.1000000000E+03
         0.1900000000E+07     0.1000000000E+03
         0.1990000000E+07     0.1000000000E+03
         0.2070000000E+07     0.1000000000E+03
         0.2160000000E+07     0.1000000000E+03
         0.2250000000E+07     0.1000000000E+03
         0.2330000000E+07     0.1000000000E+03
         0.2420000000E+07     0.1000000000E+03
         0.2510000000E+07     0.1000000000E+03
         0.2590000000E+07     0.1000000000E+03
         0.2680000000E+07     0.1000000000E+03
         0.2760000000E+07     0.1000000000E+03
         0.2850000000E+07     0.1000000000E+03
         0.2940000000E+07     0.1000000000E+03
         0.3020000000E+07     0.1000000000E+03
         0.3110000000E+07     0.1000000000E+03
         0.3200000000E+07     0.1000000000E+03
         0.3280000000E+07     0.1000000000E+03
         0.3370000000E+07     0.1000000000E+03
         0.3460000000E+07     0.1000000000E+03
         0.3540000000E+07     0.1000000000E+03
         0.3630000000E+07     0.1000000000E+03
         0.3720000000E+07     0.1000000000E+03
         0.3800000000E+07     0.1000000000E+03
         0.3890000000E+07     0.1000000000E+03
         0.3970000000E+07     0.1000000000E+03
         0.4060000000E+07     0.1000000000E+03
         0.4150000000E+07     0.1000000000E+03
         0.4230000000E+07     0.1000000000E+03
         0.4320000000E+07     0.1000000000E+03
         0.4410000000E+07     0.1000000000E+03
         0.4490000000E+07     0.1000000000E+03
         0.4580000000E+07     0.1000000000E+03
         0.4670000000E+07     0.1000000000E+03
         0.4750000000E+07     0.1000000000E+03
         0.4840000000E+07     0.1000000000E+03
         0.4920000000E+07     0.1000000000E+03
         0.5010000000E+07     0.1000000000E+03
         0.5100000000E+07     0.1000000000E+03
         0.5180000000E+07     0.1000000000E+03
         0.5270000000E+07     0.1000000000E+03
         0.5360000000E+07     0.1000000000E+03
         0.5440000000E+07     0.1000000000E+03
         0.5530000000E+07     0.1000000000E+03
         0.5620000000E+07     0.1000000000E+03
         0.5700000000E+07     0.1000000000E+03
         0.5790000000E+07     0.1000000000E+03
         0.5880000000E+07     0.1000000000E+03
         0.5960000000E+07     0.1000000000E+03
         0.6050000000E+07     0.1000000000E+03
         0.6130000000E+07     0.1000000000E+03
         0.6220000000E+07     0.1000000000E+03
         0.6310000000E+07     0.1000000000E+03
         0.6390000000E+07     0.1000000000E+03
         0.6480000000E+07     0.1000000000E+03
         0.6570000000E+07     0.1000000000E+03
         0.6650000000E+07     0.1000000000E+03
         0.6740000000E+07     0.1000000000E+03
         0.6830000000E+07     0.1000000000E+03
         0.6910000000E+07     0.1000000000E+03
         0.7000000000E+07     0.1000000000E+03
         0.7080000000E+07     0.1000000000E+03
         0.7170000000E+07     0.1000000000E+03
         0.7260000000E+07     0.1000000000E+03
         0.7340000000E+07     0.1000000000E+03
         0.7430000000E+07     0.1000000000E+03
         0.7520000000E+07     0.1000000000E+03
         0.7600000000E+07     0.1000000000E+03
         0.7690000000E+07     0.1000000000E+03
         0.7780000000E+07     0.1000000000E+03
         0.7860000000E+07     0.1000000000E+03
         0.7950000000E+07     0.1000000000E+03
         0.8040000000E+07     0.1000000000E+03
         0.8120000000E+07     0.1000000000E+03
         0.8210000000E+07     0.1000000000E+03
         0.8290000000E+07     0.1000000000E+03
         0.8380000000E+07     0.1000000000E+03
         0.8470000000E+07     0.1000000000E+03
         0.8550000000E+07     0.1000000000E+03
         0.8640000000E+07     0.1000000000E+03
         0.8730000000E+07     0.1000000000E+03
         0.8810000000E+07     0.1000000000E+03
         0.8900000000E+07     0.1000000000E+03
         0.8990000000E+07     0.1000000000E+03
         0.9070000000E+07     0.1000000000E+03
         0.9160000000E+07     0.1000000000E+03
         0.9240000000E+07     0.1000000000E+03
         0.9330000000E+07     0.1000000000E+03
         0.9420000000E+07     0.1000000000E+03
         0.9500000000E+07     0.1000000000E+03
         0.9590000000E+07     0.1000000000E+03
         0.9680000000E+07     0.1000000000E+03
         0.9760000000E+07     0.1000000000E+03
         0.9850000000E+07     0.1000000000E+03
         0.9940000000E+07     0.1000000000E+03
         0.1000000000E+08     0.1000000000E+03
         0.1010000000E+08     0.1000000000E+03
         0.1020000000E+08     0.1000000000E+03
         0.1030000000E+08     0.1000000000E+03
         0.1040000000E+08     0.1000000000E+03
         0.1050000000E+08     0.1000000000E+03
         0.1050000000E+08     0.1000000000E+03
         0.1060000000E+08     0.1000000000E+03
         0.1070000000E+08     0.1000000000E+03
         0.1080000000E+08     0.1000000000E+03
         0.1090000000E+08     0.1000000000E+03
         0.1100000000E+08     0.1000000000E+03
         0.1110000000E+08     0.1000000000E+03
         0.1110000000E+08     0.1000000000E+03
         0.1120000000E+08     0.1000000000E+03
         0.1130000000E+08     0.1000000000E+03
         0.1140000000E+08     0.1000000000E+03
         0.1150000000E+08     0.1000000000E+03
         0.1160000000E+08     0.1000000000E+03
         0.1170000000E+08     0.1000000000E+03
         0.1180000000E+08     0.1000000000E+03
         0.1180000000E+08     0.1000000000E+03
         0.1190000000E+08     0.1000000000E+03
         0.1200000000E+08     0.1000000000E+03
         0.1210000000E+08     0.1000000000E+03
         0.1220000000E+08     0.1000000000E+03
         0.1230000000E+08     0.1000000000E+03
         0.1240000000E+08     0.1000000000E+03
         0.1240000000E+08     0.1000000000E+03
         0.1250000000E+08     0.1000000000E+03
         0.1260000000E+08     0.1000000000E+03
         0.1270000000E+08     0.1000000000E+03
         0.1280000000E+08     0.1000000000E+03
         0.1290000000E+08     0.1000000000E+03
         0.1300000000E+08     0.1000000000E+03
         0.1300000000E+08     0.1000000000E+03
         0.1310000000E+08     0.1000000000E+03
         0.1320000000E+08     0.1000000000E+03
         0.1330000000E+08     0.1000000000E+03
         0.1340000000E+08     0.1000000000E+03
         0.1350000000E+08     0.1000000000E+03
         0.1360000000E+08     0.1000000000E+03
         0.1370000000E+08     0.1000000000E+03
         0.1370000000E+08     0.1000000000E+03
         0.1380000000E+08     0.1000000000E+03
         0.1390000000E+08     0.1000000000E+03
         0.1400000000E+08     0.1000000000E+03
         0.1410000000E+08     0.1000000000E+03
         0.1420000000E+08     0.1000000000E+03
         0.1430000000E+08     0.1000000000E+03
         0.1430000000E+08     0.1000000000E+03
         0.1440000000E+08     0.1000000000E+03
         0.1450000000E+08     0.1000000000E+03
         0.1460000000E+08     0.1000000000E+03
         0.1470000000E+08     0.1000000000E+03
         0.1480000000E+08     0.1000000000E+03
         0.1490000000E+08     0.1000000000E+03
         0.1490000000E+08     0.1000000000E+03
         0.1500000000E+08     0.1000000000E+03
         0.1510000000E+08     0.1000000000E+03
         0.1520000000E+08     0.1000000000E+03
         0.1530000000E+08     0.1000000000E+03
         0.1540000000E+08     0.1000000000E+03
         0.1550000000E+08     0.1000000000E+03
         0.1560000000E+08     0.1000000000E+03
         0.1560000000E+08     0.1000000000E+03
         0.1570000000E+08     0.1000000000E+03
         0.1580000000E+08     0.1000000000E+03
         0.1590000000E+08     0.1000000000E+03
         0.1600000000E+08     0.1000000000E+03
         0.1610000000E+08     0.1000000000E+03
         0.1620000000E+08     0.1000000000E+03
         0.1620000000E+08     0.1000000000E+03
         0.1630000000E+08     0.1000000000E+03
         0.1640000000E+08     0.1000000000E+03
         0.1650000000E+08     0.1000000000E+03
         0.1660000000E+08     0.1000000000E+03
         0.1670000000E+08     0.1000000000E+03
         0.1680000000E+08     0.1000000000E+03
         0.1680000000E+08     0.1000000000E+03
         0.1690000000E+08     0.1000000000E+03
         0.1700000000E+08     0.1000000000E+03
         0.1710000000E+08     0.1000000000E+03
         0.1720000000E+08     0.1000000000E+03
         0.1730000000E+08     0.1000000000E+03
         0.1740000000E+08     0.1000000000E+03
         0.1750000000E+08     0.1000000000E+03
         0.1750000000E+08     0.1000000000E+03
         0.1760000000E+08     0.1000000000E+03
         0.1770000000E+08     0.1000000000E+03
         0.1780000000E+08     0.1000000000E+03
         0.1790000000E+08     0.1000000000E+03
         0.1800000000E+08     0.1000000000E+03
         0.1810000000E+08     0.1000000000E+03
         0.1810000000E+08     0.1000000000E+03
         0.1820000000E+08     0.1000000000E+03
         0.1830000000E+08     0.1000000000E+03
         0.1840000000E+08     0.1000000000E+03
         0.1850000000E+08     0.1000000000E+03
         0.1860000000E+08     0.1000000000E+03
         0.1870000000E+08     0.1000000000E+03
         0.1870000000E+08     0.1000000000E+03
         0.1880000000E+08     0.1000000000E+03
         0.1890000000E+08     0.1000000000E+03
         0.1900000000E+08     0.1000000000E+03
         0.1910000000E+08     0.1000000000E+03
         0.1920000000E+08     0.1000000000E+03
         0.1930000000E+08     0.1000000000E+03
         0.1940000000E+08     0.1000000000E+03
         0.1940000000E+08     0.1000000000E+03
         0.1950000000E+08     0.1000000000E+03
         0.1960000000E+08     0.1000000000E+03
         0.1970000000E+08     0.1000000000E+03
         0.1980000000E+08     0.1000000000E+03
         0.1990000000E+08     0.1000000000E+03
         0.2000000000E+08     0.1000000000E+03
         0.2000000000E+08     0.1000000000E+03
         0.2010000000E+08     0.1000000000E+03
         0.2020000000E+08     0.1000000000E+03
         0.2030000000E+08     0.1000000000E+03
         0.2040000000E+08     0.1000000000E+03
         0.2050000000E+08     0.1000000000E+03
         0.2060000000E+08     0.1000000000E+03
         0.2070000000E+08     0.1000000000E+03
         0.2070000000E+08     0.1000000000E+03
         0.2080000000E+08     0.1000000000E+03
         0.2090000000E+08     0.1000000000E+03
         0.2100000000E+08     0.1000000000E+03
         0.2110000000E+08     0.1000000000E+03
         0.2120000000E+08     0.1000000000E+03
         0.2130000000E+08     0.1000000000E+03
         0.2130000000E+08     0.1000000000E+03
         0.2140000000E+08     0.1000000000E+03
         0.2150000000E+08     0.1000000000E+03
         0.2160000000E+08     0.1000000000E+03
         0.2170000000E+08     0.1000000000E+03
         0.2180000000E+08     0.1000000000E+03
         0.2190000000E+08     0.1000000000E+03
         0.2190000000E+08     0.1000000000E+03
         0.2200000000E+08     0.1000000000E+03
         0.2210000000E+08     0.1000000000E+03
         0.2220000000E+08     0.1000000000E+03
         0.2230000000E+08     0.1000000000E+03
         0.2240000000E+08     0.1000000000E+03
         0.2250000000E+08     0.1000000000E+03
         0.2260000000E+08     0.1000000000E+03
         0.2260000000E+08     0.1000000000E+03
         0.2270000000E+08     0.1000000000E+03
         0.2280000000E+08     0.1000000000E+03
         0.2290000000E+08     0.1000000000E+03
         0.2300000000E+08     0.1000000000E+03
         0.2310000000E+08     0.1000000000E+03
         0.2320000000E+08     0.1000000000E+03
         0.2320000000E+08     0.1000000000E+03
         0.2330000000E+08     0.1000000000E+03
         0.2340000000E+08     0.1000000000E+03
         0.2350000000E+08     0.1000000000E+03
         0.2360000000E+08     0.1000000000E+03
         0.2370000000E+08     0.1000000000E+03
         0.2380000000E+08     0.1000000000E+03
         0.2380000000E+08     0.1000000000E+03
         0.2390000000E+08     0.1000000000E+03
         0.2400000000E+08     0.1000000000E+03
         0.2410000000E+08     0.1000000000E+03
         0.2420000000E+08     0.1000000000E+03
         0.2430000000E+08     0.1000000000E+03
         0.2440000000E+08     0.1000000000E+03
         0.2450000000E+08     0.1000000000E+03
         0.2450000000E+08     0.1000000000E+03
         0.2460000000E+08     0.1000000000E+03
         0.2470000000E+08     0.1000000000E+03
         0.2480000000E+08     0.1000000000E+03
         0.2490000000E+08     0.1000000000E+03
         0.2500000000E+08     0.1000000000E+03
         0.2510000000E+08     0.1000000000E+03
         0.2510000000E+08     0.1000000000E+03
         0.2520000000E+08     0.1000000000E+03
         0.2530000000E+08     0.1000000000E+03
         0.2540000000E+08     0.1000000000E+03
         0.2550000000E+08     0.1000000000E+03
         0.2560000000E+08     0.1000000000E+03
         0.2570000000E+08     0.1000000000E+03
         0.2570000000E+08     0.1000000000E+03
         0.2580000000E+08     0.1000000000E+03
         0.2590000000E+08     0.1000000000E+03
         0.2600000000E+08     0.1000000000E+03
         0.2610000000E+08     0.1000000000E+03
         0.2620000000E+08     0.1000000000E+03
         0.2630000000E+08     0.1000000000E+03
         0.2640000000E+08     0.1000000000E+03
         0.2640000000E+08     0.1000000000E+03
         0.2650000000E+08     0.1000000000E+03
         0.2660000000E+08     0.1000000000E+03
         0.2670000000E+08     0.1000000000E+03
         0.2680000000E+08     0.1000000000E+03
         0.2690000000E+08     0.1000000000E+03
         0.2700000000E+08     0.1000000000E+03
         0.2700000000E+08     0.1000000000E+03
         0.2710000000E+08     0.1000000000E+03
         0.2720000000E+08     0.1000000000E+03
         0.2730000000E+08     0.1000000000E+03
         0.2740000000E+08     0.1000000000E+03
         0.2750000000E+08     0.1000000000E+03
         0.2760000000E+08     0.1000000000E+03
         0.2760000000E+08     0.1000000000E+03
         0.2770000000E+08     0.1000000000E+03
         0.2780000000E+08     0.1000000000E+03
         0.2790000000E+08     0.1000000000E+03
         0.2800000000E+08     0.1000000000E+03
         0.2810000000E+08     0.1000000000E+03
         0.2820000000E+08     0.1000000000E+03
         0.2830000000E+08     0.1000000000E+03
         0.2830000000E+08     0.1000000000E+03
         0.2840000000E+08     0.1000000000E+03
         0.2850000000E+08     0.1000000000E+03
         0.2860000000E+08     0.1000000000E+03
         0.2870000000E+08     0.1000000000E+03
         0.2880000000E+08     0.1000000000E+03
         0.2890000000E+08     0.1000000000E+03
         0.2890000000E+08     0.1000000000E+03
         0.2900000000E+08     0.1000000000E+03
         0.2910000000E+08     0.1000000000E+03
         0.2920000000E+08     0.1000000000E+03
         0.2930000000E+08     0.1000000000E+03
         0.2940000000E+08     0.1000000000E+03
         0.2950000000E+08     0.1000000000E+03
         0.2950000000E+08     0.1000000000E+03
         0.2960000000E+08     0.1000000000E+03
         0.2970000000E+08     0.1000000000E+03
         0.2980000000E+08     0.1000000000E+03
         0.2990000000E+08     0.1000000000E+03
         0.3000000000E+08     0.1000000000E+03
         0.3010000000E+08     0.1000000000E+03
         0.3020000000E+08     0.1000000000E+03
         0.3020000000E+08     0.1000000000E+03
         0.3030000000E+08     0.1000000000E+03
         0.3040000000E+08     0.1000000000E+03
         0.3050000000E+08     0.1000000000E+03
         0.3060000000E+08     0.1000000000E+03
         0.3070000000E+08     0.1000000000E+03
         0.3080000000E+08     0.1000000000E+03
         0.3080000000E+08     0.1000000000E+03
         0.3090000000E+08     0.1000000000E+03
         0.3100000000E+08     0.1000000000E+03
         0.3110000000E+08     0.1000000000E+03
         0.3120000000E+08     0.1000000000E+03
         0.3130000000E+08     0.1000000000E+03
         0.3140000000E+08     0.1000000000E+03
         0.3150000000E+08     0.1000000000E+03
         0.3150000000E+08     0.1000000000E+03
         0.3160000000E+08     0.1000000000E+03
         0.3170000000E+08     0.1000000000E+03
         0.3180000000E+08     0.1000000000E+03
         0.3190000000E+08     0.1000000000E+03
         0.3200000000E+08     0.1000000000E+03
         0.3210000000E+08     0.1000000000E+03
         0.3210000000E+08     0.1000000000E+03
         0.3220000000E+08     0.1000000000E+03
         0.3230000000E+08     0.1000000000E+03
         0.3240000000E+08     0.1000000000E+03
         0.3250000000E+08     0.1000000000E+03
         0.3260000000E+08     0.1000000000E+03
         0.3270000000E+08     0.1000000000E+03
         0.3270000000E+08     0.1000000000E+03
         0.3280000000E+08     0.1000000000E+03
         0.3290000000E+08     0.1000000000E+03
         0.3300000000E+08     0.1000000000E+03
         0.3310000000E+08     0.1000000000E+03
         0.3320000000E+08     0.1000000000E+03
         0.3330000000E+08     0.1000000000E+03
         0.3340000000E+08     0.1000000000E+03
         0.3340000000E+08     0.1000000000E+03
         0.3350000000E+08     0.1000000000E+03
         0.3360000000E+08     0.1000000000E+03
         0.3370000000E+08     0.1000000000E+03
         0.3380000000E+08     0.1000000000E+03
         0.3390000000E+08     0.1000000000E+03
         0.3400000000E+08     0.1000000000E+03
         0.3400000000E+08     0.1000000000E+03
         0.3410000000E+08     0.1000000000E+03
         0.3420000000E+08     0.1000000000E+03
         0.3430000000E+08     0.1000000000E+03
         0.3440000000E+08     0.1000000000E+03
         0.3450000000E+08     0.1000000000E+03
         0.3460000000E+08     0.1000000000E+03
         0.3460000000E+08     0.1000000000E+03
         0.3470000000E+08     0.1000000000E+03
         0.3480000000E+08     0.1000000000E+03
         0.3490000000E+08     0.1000000000E+03
         0.3500000000E+08     0.1000000000E+03
         0.3510000000E+08     0.1000000000E+03
         0.3520000000E+08     0.1000000000E+03
         0.3530000000E+08     0.1000000000E+03
         0.3530000000E+08     0.1000000000E+03
         0.3540000000E+08     0.1000000000E+03
         0.3550000000E+08     0.1000000000E+03
         0.3560000000E+08     0.1000000000E+03
         0.3570000000E+08     0.1000000000E+03
         0.3580000000E+08     0.1000000000E+03
         0.3590000000E+08     0.1000000000E+03
         0.3590000000E+08     0.1000000000E+03
         0.3600000000E+08     0.1000000000E+03
         0.3610000000E+08     0.1000000000E+03
         0.3620000000E+08     0.1000000000E+03
         0.3630000000E+08     0.1000000000E+03
         0.3640000000E+08     0.1000000000E+03
         0.3650000000E+08     0.1000000000E+03
         0.3650000000E+08     0.1000000000E+03
         0.3660000000E+08     0.1000000000E+03
         0.3670000000E+08     0.1000000000E+03
         0.3680000000E+08     0.1000000000E+03
         0.3690000000E+08     0.1000000000E+03
         0.3700000000E+08     0.1000000000E+03
         0.3710000000E+08     0.1000000000E+03
         0.3720000000E+08     0.1000000000E+03
         0.3720000000E+08     0.1000000000E+03
         0.3730000000E+08     0.1000000000E+03
         0.3740000000E+08     0.1000000000E+03
         0.3750000000E+08     0.1000000000E+03
         0.3760000000E+08     0.1000000000E+03
         0.3770000000E+08     0.1000000000E+03
         0.3780000000E+08     0.1000000000E+03
         0.3780000000E+08     0.1000000000E+03
         0.3790000000E+08     0.1000000000E+03
         0.3800000000E+08     0.1000000000E+03
         0.3810000000E+08     0.1000000000E+03
         0.3820000000E+08     0.1000000000E+03
         0.3830000000E+08     0.1000000000E+03
         0.3840000000E+08     0.1000000000E+03
         0.3840000000E+08     0.1000000000E+03
         0.3850000000E+08     0.1000000000E+03
         0.3860000000E+08     0.1000000000E+03
         0.3870000000E+08     0.1000000000E+03
         0.3880000000E+08     0.1000000000E+03
         0.3890000000E+08     0.1000000000E+03
         0.3900000000E+08     0.1000000000E+03
         0.3910000000E+08     0.1000000000E+03
         0.3910000000E+08     0.1000000000E+03
         0.3920000000E+08     0.1000000000E+03
         0.3930000000E+08     0.1000000000E+03
         0.3940000000E+08     0.1000000000E+03
         0.3950000000E+08     0.1000000000E+03
         0.3960000000E+08     0.1000000000E+03
         0.3970000000E+08     0.1000000000E+03
         0.3970000000E+08     0.1000000000E+03
         0.3980000000E+08     0.1000000000E+03
         0.3990000000E+08     0.1000000000E+03
         0.4000000000E+08     0.1000000000E+03
         0.4010000000E+08     0.1000000000E+03
         0.4020000000E+08     0.1000000000E+03
         0.4030000000E+08     0.1000000000E+03
         0.4030000000E+08     0.1000000000E+03
         0.4040000000E+08     0.1000000000E+03
         0.4050000000E+08     0.1000000000E+03
         0.4060000000E+08     0.1000000000E+03
         0.4070000000E+08     0.1000000000E+03
         0.4080000000E+08     0.1000000000E+03
         0.4090000000E+08     0.1000000000E+03
         0.4100000000E+08     0.1000000000E+03
         0.4100000000E+08     0.1000000000E+03
         0.4110000000E+08     0.1000000000E+03
         0.4120000000E+08     0.1000000000E+03
         0.4130000000E+08     0.1000000000E+03
         0.4140000000E+08     0.1000000000E+03
         0.4150000000E+08     0.1000000000E+03
         0.4160000000E+08     0.1000000000E+03
         0.4160000000E+08     0.1000000000E+03
         0.4170000000E+08     0.1000000000E+03
         0.4180000000E+08     0.1000000000E+03
         0.4190000000E+08     0.1000000000E+03
         0.4200000000E+08     0.1000000000E+03
         0.4210000000E+08     0.1000000000E+03
         0.4220000000E+08     0.1000000000E+03
         0.4230000000E+08     0.1000000000E+03
         0.4230000000E+08     0.1000000000E+03
         0.4240000000E+08     0.1000000000E+03
         0.4250000000E+08     0.1000000000E+03
         0.4260000000E+08     0.1000000000E+03
         0.4270000000E+08     0.1000000000E+03
         0.4280000000E+08     0.1000000000E+03
         0.4290000000E+08     0.1000000000E+03
         0.4290000000E+08     0.1000000000E+03
         0.4300000000E+08     0.1000000000E+03
         0.4310000000E+08     0.1000000000E+03
         0.4320000000E+08     0.1000000000E+03
         0.4330000000E+08     0.1000000000E+03
         0.4340000000E+08     0.1000000000E+03
         0.4350000000E+08     0.1000000000E+03
         0.4350000000E+08     0.1000000000E+03
         0.4360000000E+08     0.1000000000E+03
         0.4370000000E+08     0.1000000000E+03
         0.4380000000E+08     0.1000000000E+03
         0.4390000000E+08     0.1000000000E+03
         0.4400000000E+08     0.1000000000E+03
         0.4410000000E+08     0.1000000000E+03
         0.4420000000E+08     0.1000000000E+03
         0.4420000000E+08     0.1000000000E+03
         0.4430000000E+08     0.1000000000E+03
         0.4440000000E+08     0.1000000000E+03
         0.4450000000E+08     0.1000000000E+03
         0.4460000000E+08     0.1000000000E+03
         0.4470000000E+08     0.1000000000E+03
         0.4480000000E+08     0.1000000000E+03
         0.4480000000E+08     0.1000000000E+03
         0.4490000000E+08     0.1000000000E+03
         0.4500000000E+08     0.1000000000E+03
         0.4510000000E+08     0.1000000000E+03
         0.4520000000E+08     0.1000000000E+03
         0.4530000000E+08     0.1000000000E+03
         0.4540000000E+08     0.1000000000E+03
         0.4540000000E+08     0.1000000000E+03
         0.4550000000E+08     0.1000000000E+03
         0.4560000000E+08     0.1000000000E+03
         0.4570000000E+08     0.1000000000E+03
         0.4580000000E+08     0.1000000000E+03
         0.4590000000E+08     0.1000000000E+03
         0.4600000000E+08     0.1000000000E+03
         0.4610000000E+08     0.1000000000E+03
         0.4610000000E+08     0.1000000000E+03
         0.4620000000E+08     0.1000000000E+03
         0.4630000000E+08     0.1000000000E+03
         0.4640000000E+08     0.1000000000E+03
         0.4650000000E+08     0.1000000000E+03
         0.4660000000E+08     0.1000000000E+03
         0.4670000000E+08     0.1000000000E+03
         0.4670000000E+08     0.1000000000E+03
         0.4680000000E+08     0.1000000000E+03
         0.4690000000E+08     0.1000000000E+03
         0.4700000000E+08     0.1000000000E+03
         0.4710000000E+08     0.1000000000E+03
         0.4720000000E+08     0.1000000000E+03
         0.4730000000E+08     0.1000000000E+03
         0.4730000000E+08     0.1000000000E+03
         0.4740000000E+08     0.1000000000E+03
         0.4750000000E+08     0.1000000000E+03
         0.4760000000E+08     0.1000000000E+03
         0.4770000000E+08     0.1000000000E+03
         0.4780000000E+08     0.1000000000E+03
         0.4790000000E+08     0.1000000000E+03
         0.4800000000E+08     0.1000000000E+03
         0.4800000000E+08     0.1000000000E+03
         0.4810000000E+08     0.1000000000E+03
         0.4820000000E+08     0.1000000000E+03
         0.4830000000E+08     0.1000000000E+03
         0.4840000000E+08     0.1000000000E+03
         0.4850000000E+08     0.1000000000E+03
         0.4860000000E+08     0.1000000000E+03
         0.4860000000E+08     0.1000000000E+03
         0.4870000000E+08     0.1000000000E+03
         0.4880000000E+08     0.1000000000E+03
         0.4890000000E+08     0.1000000000E+03
         0.4900000000E+08     0.1000000000E+03
         0.4910000000E+08     0.1000000000E+03
         0.4920000000E+08     0.1000000000E+03
         0.4920000000E+08     0.1000000000E+03
         0.4930000000E+08     0.1000000000E+03
         0.4940000000E+08     0.1000000000E+03
         0.4950000000E+08     0.1000000000E+03
         0.4960000000E+08     0.1000000000E+03
         0.4970000000E+08     0.1000000000E+03
         0.4980000000E+08     0.1000000000E+03
         0.4990000000E+08     0.1000000000E+03
         0.4990000000E+08     0.1000000000E+03
         0.5000000000E+08     0.1000000000E+03
         0.5010000000E+08     0.1000000000E+03
         0.5020000000E+08     0.1000000000E+03
         0.5030000000E+08     0.1000000000E+03
         0.5040000000E+08     0.1000000000E+03
         0.5050000000E+08     0.1000000000E+03
         0.5050000000E+08     0.1000000000E+03
         0.5060000000E+08     0.1000000000E+03
         0.5070000000E+08     0.1000000000E+03
         0.5080000000E+08     0.1000000000E+03
         0.5090000000E+08     0.1000000000E+03
         0.5100000000E+08     0.1000000000E+03
         0.5110000000E+08     0.1000000000E+03
         0.5110000000E+08     0.1000000000E+03
         0.5120000000E+08     0.1000000000E+03
         0.5130000000E+08     0.1000000000E+03
         0.5140000000E+08     0.1000000000E+03
         0.5150000000E+08     0.1000000000E+03
         0.5160000000E+08     0.1000000000E+03
         0.5170000000E+08     0.1000000000E+03
         0.5180000000E+08     0.1000000000E+03
         0.5180000000E+08     0.1000000000E+03
         0.5190000000E+08     0.1000000000E+03
         0.5200000000E+08     0.1000000000E+03
         0.5210000000E+08     0.1000000000E+03
         0.5220000000E+08     0.1000000000E+03
         0.5230000000E+08     0.1000000000E+03
         0.5240000000E+08     0.1000000000E+03
         0.5240000000E+08     0.1000000000E+03
         0.5250000000E+08     0.1000000000E+03
         0.5260000000E+08     0.1000000000E+03
         0.5270000000E+08     0.1000000000E+03
         0.5280000000E+08     0.1000000000E+03
         0.5290000000E+08     0.1000000000E+03
         0.5300000000E+08     0.1000000000E+03
         0.5310000000E+08     0.1000000000E+03
         0.5310000000E+08     0.1000000000E+03
         0.5320000000E+08     0.1000000000E+03
         0.5330000000E+08     0.1000000000E+03
         0.5340000000E+08     0.1000000000E+03
         0.5350000000E+08     0.1000000000E+03
         0.5360000000E+08     0.1000000000E+03
         0.5370000000E+08     0.1000000000E+03
         0.5370000000E+08     0.1000000000E+03
         0.5380000000E+08     0.1000000000E+03
         0.5390000000E+08     0.1000000000E+03
         0.5400000000E+08     0.1000000000E+03
         0.5410000000E+08     0.1000000000E+03
         0.5420000000E+08     0.1000000000E+03
         0.5430000000E+08     0.1000000000E+03
         0.5430000000E+08     0.1000000000E+03
         0.5440000000E+08     0.1000000000E+03
         0.5450000000E+08     0.1000000000E+03
         0.5460000000E+08     0.1000000000E+03
         0.5470000000E+08     0.1000000000E+03
         0.5480000000E+08     0.1000000000E+03
         0.5490000000E+08     0.1000000000E+03
         0.5500000000E+08     0.1000000000E+03
         0.5500000000E+08     0.1000000000E+03
         0.5510000000E+08     0.1000000000E+03
         0.5520000000E+08     0.1000000000E+03
         0.5530000000E+08     0.1000000000E+03
         0.5540000000E+08     0.1000000000E+03
         0.5550000000E+08     0.1000000000E+03
         0.5560000000E+08     0.1000000000E+03
         0.5560000000E+08     0.1000000000E+03
         0.5570000000E+08     0.1000000000E+03
         0.5580000000E+08     0.1000000000E+03
         0.5590000000E+08     0.1000000000E+03
         0.5600000000E+08     0.1000000000E+03
         0.5610000000E+08     0.1000000000E+03
         0.5620000000E+08     0.1000000000E+03
         0.5620000000E+08     0.1000000000E+03
         0.5630000000E+08     0.1000000000E+03
         0.5640000000E+08     0.1000000000E+03
         0.5650000000E+08     0.1000000000E+03
         0.5660000000E+08     0.1000000000E+03
         0.5670000000E+08     0.1000000000E+03
         0.5680000000E+08     0.1000000000E+03
         0.5690000000E+08     0.1000000000E+03
         0.5690000000E+08     0.1000000000E+03
         0.5700000000E+08     0.1000000000E+03
         0.5710000000E+08     0.1000000000E+03
         0.5720000000E+08     0.1000000000E+03
         0.5730000000E+08     0.1000000000E+03
         0.5740000000E+08     0.1000000000E+03
         0.5750000000E+08     0.1000000000E+03
         0.5750000000E+08     0.1000000000E+03
         0.5760000000E+08     0.1000000000E+03
         0.5770000000E+08     0.1000000000E+03
         0.5780000000E+08     0.1000000000E+03
         0.5790000000E+08     0.1000000000E+03
         0.5800000000E+08     0.1000000000E+03
         0.5810000000E+08     0.1000000000E+03
         0.5810000000E+08     0.1000000000E+03
         0.5820000000E+08     0.1000000000E+03
         0.5830000000E+08     0.1000000000E+03
         0.5840000000E+08     0.1000000000E+03
         0.5850000000E+08     0.1000000000E+03
         0.5860000000E+08     0.1000000000E+03
         0.5870000000E+08     0.1000000000E+03
         0.5880000000E+08     0.1000000000E+03
         0.5880000000E+08     0.1000000000E+03
         0.5890000000E+08     0.1000000000E+03
         0.5900000000E+08     0.1000000000E+03
         0.5910000000E+08     0.1000000000E+03
         0.5920000000E+08     0.1000000000E+03
         0.5930000000E+08     0.1000000000E+03
         0.5940000000E+08     0.1000000000E+03
         0.5940000000E+08     0.1000000000E+03
         0.5950000000E+08     0.1000000000E+03
         0.5960000000E+08     0.1000000000E+03
         0.5970000000E+08     0.1000000000E+03
         0.5980000000E+08     0.1000000000E+03
         0.5990000000E+08     0.1000000000E+03
         0.6000000000E+08     0.1000000000E+03
         0.6000000000E+08     0.1000000000E+03
         0.6010000000E+08     0.1000000000E+03
         0.6020000000E+08     0.1000000000E+03
         0.6030000000E+08     0.1000000000E+03
         0.6040000000E+08     0.1000000000E+03
         0.6050000000E+08     0.1000000000E+03
         0.6060000000E+08     0.1000000000E+03
         0.6070000000E+08     0.1000000000E+03
         0.6070000000E+08     0.1000000000E+03
         0.6080000000E+08     0.1000000000E+03
         0.6090000000E+08     0.1000000000E+03
         0.6100000000E+08     0.1000000000E+03
         0.6110000000E+08     0.1000000000E+03
         0.6120000000E+08     0.1000000000E+03
         0.6130000000E+08     0.1000000000E+03
         0.6130000000E+08     0.1000000000E+03
         0.6140000000E+08     0.1000000000E+03
         0.6150000000E+08     0.1000000000E+03
         0.6160000000E+08     0.1000000000E+03
         0.6170000000E+08     0.1000000000E+03
         0.6180000000E+08     0.1000000000E+03
         0.6190000000E+08     0.1000000000E+03
         0.6190000000E+08     0.1000000000E+03
         0.6200000000E+08     0.1000000000E+03
         0.6210000000E+08     0.1000000000E+03
         0.6220000000E+08     0.1000000000E+03
         0.6230000000E+08     0.1000000000E+03
         0.6240000000E+08     0.1000000000E+03
         0.6250000000E+08     0.1000000000E+03
         0.6260000000E+08     0.1000000000E+03
         0.6260000000E+08     0.1000000000E+03
         0.6270000000E+08     0.1000000000E+03
         0.6280000000E+08     0.1000000000E+03
         0.6290000000E+08     0.1000000000E+03
         0.6300000000E+08     0.1000000000E+03
         0.6310000000E+08     0.1000000000E+03
         0.6320000000E+08     0.1000000000E+03
         0.6320000000E+08     0.1000000000E+03
         0.6330000000E+08     0.1000000000E+03
         0.6340000000E+08     0.1000000000E+03
         0.6350000000E+08     0.1000000000E+03
         0.6360000000E+08     0.1000000000E+03
         0.6370000000E+08     0.1000000000E+03
         0.6380000000E+08     0.1000000000E+03
         0.6390000000E+08     0.1000000000E+03
         0.6390000000E+08     0.1000000000E+03
         0.6400000000E+08     0.1000000000E+03
         0.6410000000E+08     0.1000000000E+03
         0.6420000000E+08     0.1000000000E+03
         0.6430000000E+08     0.1000000000E+03
         0.6440000000E+08     0.1000000000E+03
         0.6450000000E+08     0.1000000000E+03
         0.6450000000E+08     0.1000000000E+03
         0.6460000000E+08     0.1000000000E+03
         0.6470000000E+08     0.1000000000E+03
         0.6480000000E+08     0.1000000000E+03
         0.6490000000E+08     0.1000000000E+03
         0.6500000000E+08     0.1000000000E+03
         0.6510000000E+08     0.1000000000E+03
         0.6510000000E+08     0.1000000000E+03
         0.6520000000E+08     0.1000000000E+03
         0.6530000000E+08     0.1000000000E+03
         0.6540000000E+08     0.1000000000E+03
         0.6550000000E+08     0.1000000000E+03
         0.6560000000E+08     0.1000000000E+03
         0.6570000000E+08     0.1000000000E+03
         0.6580000000E+08     0.1000000000E+03
         0.6590000000E+08     0.1000000000E+03
         0.6600000000E+08     0.1000000000E+03
         0.6610000000E+08     0.1000000000E+03
         0.6610000000E+08     0.1000000000E+03
         0.6620000000E+08     0.1000000000E+03
         0.6630000000E+08     0.1000000000E+03
         0.6640000000E+08     0.1000000000E+03
         0.6650000000E+08     0.1000000000E+03
         0.6660000000E+08     0.1000000000E+03
         0.6670000000E+08     0.1000000000E+03
         0.6670000000E+08     0.1000000000E+03
         0.6680000000E+08     0.1000000000E+03
         0.6690000000E+08     0.1000000000E+03
         0.6700000000E+08     0.1000000000E+03
         0.6710000000E+08     0.1000000000E+03
         0.6720000000E+08     0.1000000000E+03
         0.6730000000E+08     0.1000000000E+03
         0.6730000000E+08     0.1000000000E+03
         0.6740000000E+08     0.1000000000E+03
         0.6750000000E+08     0.1000000000E+03
         0.6760000000E+08     0.1000000000E+03
         0.6770000000E+08     0.1000000000E+03
         0.6780000000E+08     0.1000000000E+03
         0.6790000000E+08     0.1000000000E+03
         0.6800000000E+08     0.1000000000E+03
         0.6810000000E+08     0.1000000000E+03
         0.6820000000E+08     0.1000000000E+03
         0.6830000000E+08     0.1000000000E+03
         0.6830000000E+08     0.1000000000E+03
         0.6840000000E+08     0.1000000000E+03
         0.6850000000E+08     0.1000000000E+03
         0.6860000000E+08     0.1000000000E+03
         0.6870000000E+08     0.1000000000E+03
         0.6880000000E+08     0.1000000000E+03
         0.6890000000E+08     0.1000000000E+03
         0.6890000000E+08     0.1000000000E+03
         0.6900000000E+08     0.1000000000E+03
         0.6910000000E+08     0.1000000000E+03
         0.6920000000E+08     0.1000000000E+03
         0.6930000000E+08     0.1000000000E+03
         0.6940000000E+08     0.1000000000E+03
         0.6950000000E+08     0.1000000000E+03
         0.6950000000E+08     0.1000000000E+03
         0.6960000000E+08     0.1000000000E+03
         0.6970000000E+08     0.1000000000E+03
         0.6980000000E+08     0.1000000000E+03
         0.6990000000E+08     0.1000000000E+03
         0.7000000000E+08     0.1000000000E+03
         0.7010000000E+08     0.1000000000E+03
         0.7020000000E+08     0.1000000000E+03
         0.7030000000E+08     0.1000000000E+03
         0.7040000000E+08     0.1000000000E+03
         0.7050000000E+08     0.1000000000E+03
         0.7050000000E+08     0.1000000000E+03
         0.7060000000E+08     0.1000000000E+03
         0.7070000000E+08     0.1000000000E+03
         0.7080000000E+08     0.1000000000E+03
         0.7090000000E+08     0.1000000000E+03
         0.7100000000E+08     0.1000000000E+03
         0.7110000000E+08     0.1000000000E+03
         0.7110000000E+08     0.1000000000E+03
         0.7120000000E+08     0.1000000000E+03
         0.7130000000E+08     0.1000000000E+03
         0.7140000000E+08     0.1000000000E+03
         0.7150000000E+08     0.1000000000E+03
         0.7160000000E+08     0.1000000000E+03
         0.7170000000E+08     0.1000000000E+03
         0.7170000000E+08     0.1000000000E+03
         0.7180000000E+08     0.1000000000E+03
         0.7190000000E+08     0.1000000000E+03
         0.7200000000E+08     0.1000000000E+03
         0.7210000000E+08     0.1000000000E+03
         0.7220000000E+08     0.1000000000E+03
         0.7230000000E+08     0.1000000000E+03
         0.7240000000E+08     0.1000000000E+03
         0.7250000000E+08     0.1000000000E+03
         0.7260000000E+08     0.1000000000E+03
         0.7270000000E+08     0.1000000000E+03
         0.7270000000E+08     0.1000000000E+03
         0.7280000000E+08     0.1000000000E+03
         0.7290000000E+08     0.1000000000E+03
         0.7300000000E+08     0.1000000000E+03
         0.7310000000E+08     0.1000000000E+03
         0.7320000000E+08     0.1000000000E+03
         0.7330000000E+08     0.1000000000E+03
         0.7330000000E+08     0.1000000000E+03
         0.7340000000E+08     0.1000000000E+03
         0.7350000000E+08     0.1000000000E+03
         0.7360000000E+08     0.1000000000E+03
         0.7370000000E+08     0.1000000000E+03
         0.7380000000E+08     0.1000000000E+03
         0.7390000000E+08     0.1000000000E+03
         0.7390000000E+08     0.1000000000E+03
         0.7400000000E+08     0.1000000000E+03
         0.7410000000E+08     0.1000000000E+03
         0.7420000000E+08     0.1000000000E+03
         0.7430000000E+08     0.1000000000E+03
         0.7440000000E+08     0.1000000000E+03
         0.7450000000E+08     0.1000000000E+03
         0.7460000000E+08     0.1000000000E+03
         0.7470000000E+08     0.1000000000E+03
         0.7480000000E+08     0.1000000000E+03
         0.7490000000E+08     0.1000000000E+03
         0.7490000000E+08     0.1000000000E+03
         0.7500000000E+08     0.1000000000E+03
         0.7510000000E+08     0.1000000000E+03
         0.7520000000E+08     0.1000000000E+03
         0.7530000000E+08     0.1000000000E+03
         0.7540000000E+08     0.1000000000E+03
         0.7550000000E+08     0.1000000000E+03
         0.7550000000E+08     0.1000000000E+03
         0.7560000000E+08     0.1000000000E+03
         0.7570000000E+08     0.1000000000E+03
         0.7580000000E+08     0.1000000000E+03
         0.7590000000E+08     0.1000000000E+03
         0.7600000000E+08     0.1000000000E+03
         0.7610000000E+08     0.1000000000E+03
         0.7610000000E+08     0.1000000000E+03
         0.7620000000E+08     0.1000000000E+03
         0.7630000000E+08     0.1000000000E+03
         0.7640000000E+08     0.1000000000E+03
         0.7650000000E+08     0.1000000000E+03
         0.7660000000E+08     0.1000000000E+03
         0.7670000000E+08     0.1000000000E+03
         0.7680000000E+08     0.1000000000E+03
         0.7690000000E+08     0.1000000000E+03
         0.7700000000E+08     0.1000000000E+03
         0.7710000000E+08     0.1000000000E+03
         0.7710000000E+08     0.1000000000E+03
         0.7720000000E+08     0.1000000000E+03
         0.7730000000E+08     0.1000000000E+03
         0.7740000000E+08     0.1000000000E+03
         0.7750000000E+08     0.1000000000E+03
         0.7760000000E+08     0.1000000000E+03
         0.7770000000E+08     0.1000000000E+03
         0.7770000000E+08     0.1000000000E+03
         0.7780000000E+08     0.1000000000E+03
         0.7790000000E+08     0.1000000000E+03
         0.7800000000E+08     0.1000000000E+03
         0.7810000000E+08     0.1000000000E+03
         0.7820000000E+08     0.1000000000E+03
         0.7830000000E+08     0.1000000000E+03
         0.7830000000E+08     0.1000000000E+03
         0.7840000000E+08     0.1000000000E+03
         0.7850000000E+08     0.1000000000E+03
         0.7860000000E+08     0.1000000000E+03
         0.7870000000E+08     0.1000000000E+03
         0.7880000000E+08     0.1000000000E+03
         0.7890000000E+08     0.1000000000E+03
         0.7900000000E+08     0.1000000000E+03
         0.7910000000E+08     0.1000000000E+03
         0.7920000000E+08     0.1000000000E+03
         0.7930000000E+08     0.1000000000E+03
         0.7930000000E+08     0.1000000000E+03
         0.7940000000E+08     0.1000000000E+03
         0.7950000000E+08     0.1000000000E+03
         0.7960000000E+08     0.1000000000E+03
         0.7970000000E+08     0.1000000000E+03
         0.7980000000E+08     0.1000000000E+03
         0.7990000000E+08     0.1000000000E+03
         0.7990000000E+08     0.1000000000E+03
         0.8000000000E+08     0.1000000000E+03
         0.8010000000E+08     0.1000000000E+03
         0.8020000000E+08     0.1000000000E+03
         0.8030000000E+08     0.1000000000E+03
         0.8040000000E+08     0.1000000000E+03
         0.8050000000E+08     0.1000000000E+03
         0.8050000000E+08     0.1000000000E+03
         0.8060000000E+08     0.1000000000E+03
         0.8070000000E+08     0.1000000000E+03
         0.8080000000E+08     0.1000000000E+03
         0.8090000000E+08     0.1000000000E+03
         0.8100000000E+08     0.1000000000E+03
         0.8110000000E+08     0.1000000000E+03
         0.8120000000E+08     0.1000000000E+03
         0.8130000000E+08     0.1000000000E+03
         0.8140000000E+08     0.1000000000E+03
         0.8150000000E+08     0.1000000000E+03
         0.8150000000E+08     0.1000000000E+03
         0.8160000000E+08     0.1000000000E+03
         0.8170000000E+08     0.1000000000E+03
         0.8180000000E+08     0.1000000000E+03
         0.8190000000E+08     0.1000000000E+03
         0.8200000000E+08     0.1000000000E+03
         0.8210000000E+08     0.1000000000E+03
         0.8210000000E+08     0.1000000000E+03
         0.8220000000E+08     0.1000000000E+03
         0.8230000000E+08     0.1000000000E+03
         0.8240000000E+08     0.1000000000E+03
         0.8250000000E+08     0.1000000000E+03
         0.8260000000E+08     0.1000000000E+03
         0.8270000000E+08     0.1000000000E+03
         0.8270000000E+08     0.1000000000E+03
         0.8280000000E+08     0.1000000000E+03
         0.8290000000E+08     0.1000000000E+03
         0.8300000000E+08     0.1000000000E+03
         0.8310000000E+08     0.1000000000E+03
         0.8320000000E+08     0.1000000000E+03
         0.8330000000E+08     0.1000000000E+03
         0.8340000000E+08     0.1000000000E+03
         0.8350000000E+08     0.1000000000E+03
         0.8360000000E+08     0.1000000000E+03
         0.8370000000E+08     0.1000000000E+03
         0.8370000000E+08     0.1000000000E+03
         0.8380000000E+08     0.1000000000E+03
         0.8390000000E+08     0.1000000000E+03
         0.8400000000E+08     0.1000000000E+03
         0.8410000000E+08     0.1000000000E+03
         0.8420000000E+08     0.1000000000E+03
         0.8430000000E+08     0.1000000000E+03
         0.8430000000E+08     0.1000000000E+03
         0.8440000000E+08     0.1000000000E+03
         0.8450000000E+08     0.1000000000E+03
         0.8460000000E+08     0.1000000000E+03
         0.8470000000E+08     0.1000000000E+03
         0.8480000000E+08     0.1000000000E+03
         0.8490000000E+08     0.1000000000E+03
         0.8490000000E+08     0.1000000000E+03
         0.8500000000E+08     0.1000000000E+03
         0.8510000000E+08     0.1000000000E+03
         0.8520000000E+08     0.1000000000E+03
         0.8530000000E+08     0.1000000000E+03
         0.8540000000E+08     0.1000000000E+03
         0.8550000000E+08     0.1000000000E+03
         0.8560000000E+08     0.1000000000E+03
         0.8570000000E+08     0.1000000000E+03
         0.8580000000E+08     0.1000000000E+03
         0.8590000000E+08     0.1000000000E+03
         0.8590000000E+08     0.1000000000E+03
         0.8600000000E+08     0.1000000000E+03
         0.8610000000E+08     0.1000000000E+03
         0.8620000000E+08     0.1000000000E+03
         0.8630000000E+08     0.1000000000E+03
         0.8640000000E+08     0.1000000000E+03
         0.8650000000E+08     0.1000000000E+03
         0.8650000000E+08     0.1000000000E+03
         0.8660000000E+08     0.1000000000E+03
         0.8670000000E+08     0.1000000000E+03
         0.8680000000E+08     0.1000000000E+03
         0.8690000000E+08     0.1000000000E+03
         0.8700000000E+08     0.1000000000E+03
         0.8710000000E+08     0.1000000000E+03
         0.8710000000E+08     0.1000000000E+03
         0.8720000000E+08     0.1000000000E+03
         0.8730000000E+08     0.1000000000E+03
         0.8740000000E+08     0.1000000000E+03
         0.8750000000E+08     0.1000000000E+03
         0.8760000000E+08     0.1000000000E+03
         0.8770000000E+08     0.1000000000E+03
         0.8780000000E+08     0.1000000000E+03
         0.8790000000E+08     0.1000000000E+03
         0.8800000000E+08     0.1000000000E+03
         0.8810000000E+08     0.1000000000E+03
         0.8810000000E+08     0.1000000000E+03
         0.8820000000E+08     0.1000000000E+03
         0.8830000000E+08     0.1000000000E+03
         0.8840000000E+08     0.1000000000E+03
         0.8850000000E+08     0.1000000000E+03
         0.8860000000E+08     0.1000000000E+03
         0.8870000000E+08     0.1000000000E+03
         0.8870000000E+08     0.1000000000E+03
         0.8880000000E+08     0.1000000000E+03
         0.8890000000E+08     0.1000000000E+03
         0.8900000000E+08     0.1000000000E+03
         0.8910000000E+08     0.1000000000E+03
         0.8920000000E+08     0.1000000000E+03
         0.8930000000E+08     0.1000000000E+03
         0.8930000000E+08     0.1000000000E+03
         0.8940000000E+08     0.1000000000E+03
         0.8950000000E+08     0.1000000000E+03
         0.8960000000E+08     0.1000000000E+03
         0.8970000000E+08     0.1000000000E+03
         0.8980000000E+08     0.1000000000E+03
         0.8990000000E+08     0.1000000000E+03
         0.9000000000E+08     0.1000000000E+03
         0.9010000000E+08     0.1000000000E+03
         0.9020000000E+08     0.1000000000E+03
         0.9030000000E+08     0.1000000000E+03
         0.9030000000E+08     0.1000000000E+03
         0.9040000000E+08     0.1000000000E+03
         0.9050000000E+08     0.1000000000E+03
         0.9060000000E+08     0.1000000000E+03
         0.9070000000E+08     0.1000000000E+03
         0.9080000000E+08     0.1000000000E+03
         0.9090000000E+08     0.1000000000E+03
         0.9090000000E+08     0.1000000000E+03
         0.9100000000E+08     0.1000000000E+03
         0.9110000000E+08     0.1000000000E+03
         0.9120000000E+08     0.1000000000E+03
         0.9130000000E+08     0.1000000000E+03
         0.9140000000E+08     0.1000000000E+03
         0.9150000000E+08     0.1000000000E+03
         0.9150000000E+08     0.1000000000E+03
         0.9160000000E+08     0.1000000000E+03
         0.9170000000E+08     0.1000000000E+03
         0.9180000000E+08     0.1000000000E+03
         0.9190000000E+08     0.1000000000E+03
         0.9200000000E+08     0.1000000000E+03
         0.9210000000E+08     0.1000000000E+03
         0.9220000000E+08     0.1000000000E+03
         0.9230000000E+08     0.1000000000E+03
         0.9240000000E+08     0.1000000000E+03
         0.9250000000E+08     0.1000000000E+03
         0.9250000000E+08     0.1000000000E+03
         0.9260000000E+08     0.1000000000E+03
         0.9270000000E+08     0.1000000000E+03
         0.9280000000E+08     0.1000000000E+03
         0.9290000000E+08     0.1000000000E+03
         0.9300000000E+08     0.1000000000E+03
         0.9310000000E+08     0.1000000000E+03
         0.9310000000E+08     0.1000000000E+03
         0.9320000000E+08     0.1000000000E+03
         0.9330000000E+08     0.1000000000E+03
         0.9340000000E+08     0.1000000000E+03
         0.9350000000E+08     0.1000000000E+03
         0.9360000000E+08     0.1000000000E+03
         0.9370000000E+08     0.1000000000E+03
         0.9370000000E+08     0.1000000000E+03
         0.9380000000E+08     0.1000000000E+03
         0.9390000000E+08     0.1000000000E+03
         0.9400000000E+08     0.1000000000E+03
         0.9410000000E+08     0.1000000000E+03
         0.9420000000E+08     0.1000000000E+03
         0.9430000000E+08     0.1000000000E+03
         0.9440000000E+08     0.1000000000E+03
         0.9450000000E+08     0.1000000000E+03
         0.9460000000E+08     0.1000000000E+03
         0.9470000000E+08     0.1000000000E+03
         0.9470000000E+08     0.1000000000E+03
         0.9480000000E+08     0.1000000000E+03
         0.9490000000E+08     0.1000000000E+03
         0.9500000000E+08     0.1000000000E+03
         0.9510000000E+08     0.1000000000E+03
         0.9520000000E+08     0.1000000000E+03
         0.9530000000E+08     0.1000000000E+03
         0.9530000000E+08     0.1000000000E+03
         0.9540000000E+08     0.1000000000E+03
         0.9550000000E+08     0.1000000000E+03
         0.9560000000E+08     0.1000000000E+03
         0.9570000000E+08     0.1000000000E+03
         0.9580000000E+08     0.1000000000E+03
         0.9590000000E+08     0.1000000000E+03
         0.9590000000E+08     0.1000000000E+03
         0.9600000000E+08     0.1000000000E+03
         0.9610000000E+08     0.1000000000E+03
         0.9620000000E+08     0.1000000000E+03
         0.9630000000E+08     0.1000000000E+03
         0.9640000000E+08     0.1000000000E+03
         0.9650000000E+08     0.1000000000E+03
         0.9660000000E+08     0.1000000000E+03
         0.9670000000E+08     0.1000000000E+03
         0.9680000000E+08     0.1000000000E+03
         0.9690000000E+08     0.1000000000E+03
         0.9690000000E+08     0.1000000000E+03
         0.9700000000E+08     0.1000000000E+03
         0.9710000000E+08     0.1000000000E+03
         0.9720000000E+08     0.1000000000E+03
         0.9730000000E+08     0.1000000000E+03
         0.9740000000E+08     0.1000000000E+03
         0.9750000000E+08     0.1000000000E+03
         0.9750000000E+08     0.1000000000E+03
         0.9760000000E+08     0.1000000000E+03
         0.9770000000E+08     0.1000000000E+03
         0.9780000000E+08     0.1000000000E+03
         0.9790000000E+08     0.1000000000E+03
         0.9800000000E+08     0.1000000000E+03
         0.9810000000E+08     0.1000000000E+03
         0.9810000000E+08     0.1000000000E+03
         0.9820000000E+08     0.1000000000E+03
         0.9830000000E+08     0.1000000000E+03
         0.9840000000E+08     0.1000000000E+03
         0.9850000000E+08     0.1000000000E+03
         0.9860000000E+08     0.1000000000E+03
         0.9870000000E+08     0.1000000000E+03
         0.9880000000E+08     0.1000000000E+03
         0.9890000000E+08     0.1000000000E+03
         0.9900000000E+08     0.1000000000E+03
         0.9910000000E+08     0.1000000000E+03
         0.9910000000E+08     0.1000000000E+03
         0.9920000000E+08     0.1000000000E+03
         0.9930000000E+08     0.1000000000E+03
         0.9940000000E+08     0.1000000000E+03
         0.9950000000E+08     0.1000000000E+03
         0.9960000000E+08     0.1000000000E+03
         0.9970000000E+08     0.1000000000E+03
         0.9970000000E+08     0.1000000000E+03
         0.9980000000E+08     0.1000000000E+03
         0.9990000000E+08     0.1000000000E+03
         0.1000000000E+09     0.1000000000E+03
         0.1001000000E+09     0.1000000000E+03
         0.1002000000E+09     0.1000000000E+03
         0.1003000000E+09     0.1000000000E+03
         0.1003000000E+09     0.1000000000E+03
         0.1004000000E+09     0.1000000000E+03
         0.1005000000E+09     0.1000000000E+03
         0.1006000000E+09     0.1000000000E+03
         0.1007000000E+09     0.1000000000E+03
         0.1008000000E+09     0.1000000000E+03
         0.1009000000E+09     0.1000000000E+03
         0.1010000000E+09     0.1000000000E+03
         0.1011000000E+09     0.1000000000E+03
         0.1012000000E+09     0.1000000000E+03
         0.1013000000E+09     0.1000000000E+03
         0.1013000000E+09     0.1000000000E+03
         0.1014000000E+09     0.1000000000E+03
         0.1015000000E+09     0.1000000000E+03
         0.1016000000E+09     0.1000000000E+03
         0.1017000000E+09     0.1000000000E+03
         0.1018000000E+09     0.1000000000E+03
         0.1019000000E+09     0.1000000000E+03
         0.1019000000E+09     0.1000000000E+03
         0.1020000000E+09     0.1000000000E+03
         0.1021000000E+09     0.1000000000E+03
         0.1022000000E+09     0.1000000000E+03
         0.1023000000E+09     0.1000000000E+03
         0.1024000000E+09     0.1000000000E+03
         0.1025000000E+09     0.1000000000E+03
         0.1025000000E+09     0.1000000000E+03
         0.1026000000E+09     0.1000000000E+03
         0.1027000000E+09     0.1000000000E+03
         0.1028000000E+09     0.1000000000E+03
         0.1029000000E+09     0.1000000000E+03
         0.1030000000E+09     0.1000000000E+03
         0.1031000000E+09     0.1000000000E+03
         0.1032000000E+09     0.1000000000E+03
         0.1033000000E+09     0.1000000000E+03
         0.1034000000E+09     0.1000000000E+03
         0.1035000000E+09     0.1000000000E+03
         0.1035000000E+09     0.1000000000E+03
         0.1036000000E+09     0.1000000000E+03
         0.1037000000E+09     0.1000000000E+03
         0.1038000000E+09     0.1000000000E+03
         0.1039000000E+09     0.1000000000E+03
         0.1040000000E+09     0.1000000000E+03
         0.1041000000E+09     0.1000000000E+03
         0.1041000000E+09     0.1000000000E+03
         0.1042000000E+09     0.1000000000E+03
         0.1043000000E+09     0.1000000000E+03
         0.1044000000E+09     0.1000000000E+03
         0.1045000000E+09     0.1000000000E+03
         0.1046000000E+09     0.1000000000E+03
         0.1047000000E+09     0.1000000000E+03
         0.1047000000E+09     0.1000000000E+03
         0.1048000000E+09     0.1000000000E+03
         0.1049000000E+09     0.1000000000E+03
         0.1050000000E+09     0.1000000000E+03
         0.1051000000E+09     0.1000000000E+03
         0.1052000000E+09     0.1000000000E+03
         0.1053000000E+09     0.1000000000E+03
         0.1054000000E+09     0.1000000000E+03
         0.1055000000E+09     0.1000000000E+03
         0.1056000000E+09     0.1000000000E+03
         0.1057000000E+09     0.1000000000E+03
         0.1057000000E+09     0.1000000000E+03
         0.1058000000E+09     0.1000000000E+03
         0.1059000000E+09     0.1000000000E+03
         0.1060000000E+09     0.1000000000E+03
         0.1061000000E+09     0.1000000000E+03
         0.1062000000E+09     0.1000000000E+03
         0.1063000000E+09     0.1000000000E+03
         0.1063000000E+09     0.1000000000E+03
         0.1064000000E+09     0.1000000000E+03
         0.1065000000E+09     0.1000000000E+03
         0.1066000000E+09     0.1000000000E+03
         0.1067000000E+09     0.1000000000E+03
         0.1068000000E+09     0.1000000000E+03
         0.1069000000E+09     0.1000000000E+03
         0.1069000000E+09     0.1000000000E+03
         0.1070000000E+09     0.1000000000E+03
         0.1071000000E+09     0.1000000000E+03
         0.1072000000E+09     0.1000000000E+03
         0.1073000000E+09     0.1000000000E+03
         0.1074000000E+09     0.1000000000E+03
         0.1075000000E+09     0.1000000000E+03
         0.1076000000E+09     0.1000000000E+03
         0.1077000000E+09     0.1000000000E+03
         0.1078000000E+09     0.1000000000E+03
         0.1079000000E+09     0.1000000000E+03
         0.1079000000E+09     0.1000000000E+03
         0.1080000000E+09     0.1000000000E+03
         0.1081000000E+09     0.1000000000E+03
         0.1082000000E+09     0.1000000000E+03
         0.1083000000E+09     0.1000000000E+03
         0.1084000000E+09     0.1000000000E+03
         0.1085000000E+09     0.1000000000E+03
         0.1085000000E+09     0.1000000000E+03
         0.1086000000E+09     0.1000000000E+03
         0.1087000000E+09     0.1000000000E+03
         0.1088000000E+09     0.1000000000E+03
         0.1089000000E+09     0.1000000000E+03
         0.1090000000E+09     0.1000000000E+03
         0.1091000000E+09     0.1000000000E+03
         0.1091000000E+09     0.1000000000E+03
         0.1092000000E+09     0.1000000000E+03
         0.1093000000E+09     0.1000000000E+03
         0.1094000000E+09     0.1000000000E+03
         0.1095000000E+09     0.1000000000E+03
         0.1096000000E+09     0.1000000000E+03
         0.1097000000E+09     0.1000000000E+03
         0.1098000000E+09     0.1000000000E+03
         0.1099000000E+09     0.1000000000E+03
         0.1100000000E+09     0.1000000000E+03
         0.1101000000E+09     0.1000000000E+03
         0.1101000000E+09     0.1000000000E+03
         0.1102000000E+09     0.1000000000E+03
         0.1103000000E+09     0.1000000000E+03
         0.1104000000E+09     0.1000000000E+03
         0.1105000000E+09     0.1000000000E+03
         0.1106000000E+09     0.1000000000E+03
         0.1107000000E+09     0.1000000000E+03
         0.1107000000E+09     0.1000000000E+03
         0.1108000000E+09     0.1000000000E+03
         0.1109000000E+09     0.1000000000E+03
         0.1110000000E+09     0.1000000000E+03
         0.1111000000E+09     0.1000000000E+03
         0.1112000000E+09     0.1000000000E+03
         0.1113000000E+09     0.1000000000E+03
         0.1113000000E+09     0.1000000000E+03
         0.1114000000E+09     0.1000000000E+03
         0.1115000000E+09     0.1000000000E+03
         0.1116000000E+09     0.1000000000E+03
         0.1117000000E+09     0.1000000000E+03
         0.1118000000E+09     0.1000000000E+03
         0.1119000000E+09     0.1000000000E+03
         0.1120000000E+09     0.1000000000E+03
         0.1121000000E+09     0.1000000000E+03
         0.1122000000E+09     0.1000000000E+03
         0.1123000000E+09     0.1000000000E+03
         0.1123000000E+09     0.1000000000E+03
         0.1124000000E+09     0.1000000000E+03
         0.1125000000E+09     0.1000000000E+03
         0.1126000000E+09     0.1000000000E+03
         0.1127000000E+09     0.1000000000E+03
         0.1128000000E+09     0.1000000000E+03
         0.1129000000E+09     0.1000000000E+03
         0.1129000000E+09     0.1000000000E+03
         0.1130000000E+09     0.1000000000E+03
         0.1131000000E+09     0.1000000000E+03
         0.1132000000E+09     0.1000000000E+03
         0.1133000000E+09     0.1000000000E+03
         0.1134000000E+09     0.1000000000E+03
         0.1135000000E+09     0.1000000000E+03
         0.1135000000E+09     0.1000000000E+03
         0.1136000000E+09     0.1000000000E+03
         0.1137000000E+09     0.1000000000E+03
         0.1138000000E+09     0.1000000000E+03
         0.1139000000E+09     0.1000000000E+03
         0.1140000000E+09     0.1000000000E+03
         0.1141000000E+09     0.1000000000E+03
         0.1142000000E+09     0.1000000000E+03
         0.1143000000E+09     0.1000000000E+03
         0.1144000000E+09     0.1000000000E+03
         0.1145000000E+09     0.1000000000E+03
         0.1145000000E+09     0.1000000000E+03
         0.1146000000E+09     0.1000000000E+03
         0.1147000000E+09     0.1000000000E+03
         0.1148000000E+09     0.1000000000E+03
         0.1149000000E+09     0.1000000000E+03
         0.1150000000E+09     0.1000000000E+03
         0.1151000000E+09     0.1000000000E+03
         0.1151000000E+09     0.1000000000E+03
         0.1152000000E+09     0.1000000000E+03
         0.1153000000E+09     0.1000000000E+03
         0.1154000000E+09     0.1000000000E+03
         0.1155000000E+09     0.1000000000E+03
         0.1156000000E+09     0.1000000000E+03
         0.1157000000E+09     0.1000000000E+03
         0.1157000000E+09     0.1000000000E+03
         0.1158000000E+09     0.1000000000E+03
         0.1159000000E+09     0.1000000000E+03
         0.1160000000E+09     0.1000000000E+03
         0.1161000000E+09     0.1000000000E+03
         0.1162000000E+09     0.1000000000E+03
         0.1163000000E+09     0.1000000000E+03
         0.1164000000E+09     0.1000000000E+03
         0.1165000000E+09     0.1000000000E+03
         0.1166000000E+09     0.1000000000E+03
         0.1167000000E+09     0.1000000000E+03
         0.1167000000E+09     0.1000000000E+03
         0.1168000000E+09     0.1000000000E+03
         0.1169000000E+09     0.1000000000E+03
         0.1170000000E+09     0.1000000000E+03
         0.1171000000E+09     0.1000000000E+03
         0.1172000000E+09     0.1000000000E+03
         0.1173000000E+09     0.1000000000E+03
         0.1173000000E+09     0.1000000000E+03
         0.1174000000E+09     0.1000000000E+03
         0.1175000000E+09     0.1000000000E+03
         0.1176000000E+09     0.1000000000E+03
         0.1177000000E+09     0.1000000000E+03
         0.1178000000E+09     0.1000000000E+03
         0.1179000000E+09     0.1000000000E+03
         0.1179000000E+09     0.1000000000E+03
         0.1180000000E+09     0.1000000000E+03
         0.1181000000E+09     0.1000000000E+03
         0.1182000000E+09     0.1000000000E+03
         0.1183000000E+09     0.1000000000E+03
         0.1184000000E+09     0.1000000000E+03
         0.1185000000E+09     0.1000000000E+03
         0.1186000000E+09     0.1000000000E+03
         0.1187000000E+09     0.1000000000E+03
         0.1188000000E+09     0.1000000000E+03
         0.1189000000E+09     0.1000000000E+03
         0.1189000000E+09     0.1000000000E+03
         0.1190000000E+09     0.1000000000E+03
         0.1191000000E+09     0.1000000000E+03
         0.1192000000E+09     0.1000000000E+03
         0.1193000000E+09     0.1000000000E+03
         0.1194000000E+09     0.1000000000E+03
         0.1195000000E+09     0.1000000000E+03
         0.1195000000E+09     0.1000000000E+03
         0.1196000000E+09     0.1000000000E+03
         0.1197000000E+09     0.1000000000E+03
         0.1198000000E+09     0.1000000000E+03
         0.1199000000E+09     0.1000000000E+03
         0.1200000000E+09     0.1000000000E+03
         0.1201000000E+09     0.1000000000E+03
         0.1201000000E+09     0.1000000000E+03
         0.1202000000E+09     0.1000000000E+03
         0.1203000000E+09     0.1000000000E+03
         0.1204000000E+09     0.1000000000E+03
         0.1205000000E+09     0.1000000000E+03
         0.1206000000E+09     0.1000000000E+03
         0.1207000000E+09     0.1000000000E+03
         0.1208000000E+09     0.1000000000E+03
         0.1209000000E+09     0.1000000000E+03
         0.1210000000E+09     0.1000000000E+03
         0.1211000000E+09     0.1000000000E+03
         0.1211000000E+09     0.1000000000E+03
         0.1212000000E+09     0.1000000000E+03
         0.1213000000E+09     0.1000000000E+03
         0.1214000000E+09     0.1000000000E+03
         0.1215000000E+09     0.1000000000E+03
         0.1216000000E+09     0.1000000000E+03
         0.1217000000E+09     0.1000000000E+03
         0.1217000000E+09     0.1000000000E+03
         0.1218000000E+09     0.1000000000E+03
         0.1219000000E+09     0.1000000000E+03
         0.1220000000E+09     0.1000000000E+03
         0.1221000000E+09     0.1000000000E+03
         0.1222000000E+09     0.1000000000E+03
         0.1223000000E+09     0.1000000000E+03
         0.1223000000E+09     0.1000000000E+03
         0.1224000000E+09     0.1000000000E+03
         0.1225000000E+09     0.1000000000E+03
         0.1226000000E+09     0.1000000000E+03
         0.1227000000E+09     0.1000000000E+03
         0.1228000000E+09     0.1000000000E+03
         0.1229000000E+09     0.1000000000E+03
         0.1230000000E+09     0.1000000000E+03
         0.1231000000E+09     0.1000000000E+03
         0.1232000000E+09     0.1000000000E+03
         0.1233000000E+09     0.1000000000E+03
         0.1233000000E+09     0.1000000000E+03
         0.1234000000E+09     0.1000000000E+03
         0.1235000000E+09     0.1000000000E+03
         0.1236000000E+09     0.1000000000E+03
         0.1237000000E+09     0.1000000000E+03
         0.1238000000E+09     0.1000000000E+03
         0.1239000000E+09     0.1000000000E+03
         0.1239000000E+09     0.1000000000E+03
         0.1240000000E+09     0.1000000000E+03
         0.1241000000E+09     0.1000000000E+03
         0.1242000000E+09     0.1000000000E+03
         0.1243000000E+09     0.1000000000E+03
         0.1244000000E+09     0.1000000000E+03
         0.1245000000E+09     0.1000000000E+03
         0.1245000000E+09     0.1000000000E+03
         0.1246000000E+09     0.1000000000E+03
         0.1247000000E+09     0.1000000000E+03
         0.1248000000E+09     0.1000000000E+03
         0.1249000000E+09     0.1000000000E+03
         0.1250000000E+09     0.1000000000E+03
         0.1251000000E+09     0.1000000000E+03
         0.1252000000E+09     0.1000000000E+03
         0.1253000000E+09     0.1000000000E+03
         0.1254000000E+09     0.1000000000E+03
         0.1255000000E+09     0.1000000000E+03
         0.1255000000E+09     0.1000000000E+03
         0.1256000000E+09     0.1000000000E+03
         0.1257000000E+09     0.1000000000E+03
         0.1258000000E+09     0.1000000000E+03
         0.1259000000E+09     0.1000000000E+03
         0.1260000000E+09     0.1000000000E+03



            AREAL INFILTRATION RATE
 READING ON UNIT   19 WITH FORMAT: (10F4.0)            

            1           2           3           4           5           6           7           8           9          10
 ........................................................................................................................
   1   1.0000E-10  2.0000E-10   0.000       0.000       0.000       0.000       0.000       0.000       0.000       0.000    
   2   2.0000E-10  1.0000E-10  2.0000E-10   0.000       0.000      8.0000E-10  8.0000E-10  5.0000E-10   0.000       0.000    
   3    0.000      5.0000E-10  1.0000E-10  1.0000E-10  8.0000E-10  8.0000E-10  5.0000E-10  5.0000E-10   0.000       0.000    
   4   8.0000E-10  5.0000E-10  1.0000E-10  1.0000E-10  1.0000E-10  1.0000E-10  1.0000E-10  1.0000E-10  2.0000E-10   0.000    
   5   8.0000E-10  5.0000E-10  1.0000E-10  1.0000E-10  1.0000E-10  1.0000E-10  1.0000E-10  1.0000E-10  1.0000E-10  1.0000E-10
   6   8.0000E-10  5.0000E-10  5.0000E-10  2.0000E-10  2.0000E-10  1.0000E-10  1.0000E-10  1.0000E-10  1.0000E-10  5.0000E-10
   7   8.0000E-10  5.0000E-10  5.0000E-10  2.0000E-10  2.0000E-10  1.0000E-10  1.0000E-10  2.0000E-10  2.0000E-10   0.000    
   8    0.000      5.0000E-10  5.0000E-10  2.0000E-10  2.0000E-10  1.0000E-10  1.0000E-10  2.0000E-10  5.0000E-10   0.000    
   9    0.000      5.0000E-10  5.0000E-10  2.0000E-10  2.0000E-10  1.0000E-10  1.0000E-10  2.0000E-10  5.0000E-10   0.000    
  10    0.000      5.0000E-10  5.0000E-10  2.0000E-10  2.0000E-10  1.0000E-10  1.0000E-10  2.0000E-10  5.0000E-10  8.0000E-10
  11    0.000      1.0000E-10  1.0000E-10  1.0000E-10  1.0000E-10  1.0000E-10  1.0000E-10  2.0000E-10  5.0000E-10   0.000    
  12   1.0000E-10  1.0000E-10  1.0000E-10  1.0000E-10  1.0000E-10  1.0000E-10  1.0000E-10  1.0000E-10  2.0000E-10   0.000    
  13   1.0000E-10  1.0000E-10  2.0000E-10  2.0000E-10  2.0000E-10  2.0000E-10  2.0000E-10  1.0000E-10  1.0000E-10   0.000    
  14    0.000      2.0000E-10  5.0000E-10  5.0000E-10  5.0000E-10  5.0000E-10  5.0000E-10  2.0000E-10  1.0000E-10   0.000    
  15    0.000       0.000      8.0000E-10  8.0000E-10  8.0000E-10  8.0000E-10   0.000       0.000       0.000       0.000    

                  ET RATE =  1.000000E-08

      ET EXTINCTION DEPTH =  0.500000    

 EXTINCTION WATER CONTENT =  0.200000    

EXTINCTION WATER CONTENT FOR CELL AT ROW     1, COLUMN     1 IS LESS THAN RESIDUAL WATER CONTENT-- SETTING EXTINCTION WATER CONTENT EQUAL TO RESIDUAL WATER CONTENT

EXTINCTION WATER CONTENT FOR CELL AT ROW     1, COLUMN     2 IS LESS THAN RESIDUAL WATER CONTENT-- SETTING EXTINCTION WATER CONTENT EQUAL TO RESIDUAL WATER CONTENT

EXTINCTION WATER CONTENT FOR CELL AT ROW     2, COLUMN     1 IS LESS THAN RESIDUAL WATER CONTENT-- SETTING EXTINCTION WATER CONTENT EQUAL TO RESIDUAL WATER CONTENT

EXTINCTION WATER CONTENT FOR CELL AT ROW     2, COLUMN     2 IS LESS THAN RESIDUAL WATER CONTENT-- SETTING EXTINCTION WATER CONTENT EQUAL TO RESIDUAL WATER CONTENT

EXTINCTION WATER CONTENT FOR CELL AT ROW     2, COLUMN     3 IS LESS THAN RESIDUAL WATER CONTENT-- SETTING EXTINCTION WATER CONTENT EQUAL TO RESIDUAL WATER CONTENT

EXTINCTION WATER CONTENT FOR CELL AT ROW     2, COLUMN     6 IS LESS THAN RESIDUAL WATER CONTENT-- SETTING EXTINCTION WATER CONTENT EQUAL TO RESIDUAL WATER CONTENT

EXTINCTION WATER CONTENT FOR CELL AT ROW     2, COLUMN     7 IS LESS THAN RESIDUAL WATER CONTENT-- SETTING EXTINCTION WATER CONTENT EQUAL TO RESIDUAL WATER CONTENT

EXTINCTION WATER CONTENT FOR CELL AT ROW     2, COLUMN     8 IS LESS THAN RESIDUAL WATER CONTENT-- SETTING EXTINCTION WATER CONTENT EQUAL TO RESIDUAL WATER CONTENT

EXTINCTION WATER CONTENT FOR CELL AT ROW     3, COLUMN     2 IS LESS THAN RESIDUAL WATER CONTENT-- SETTING EXTINCTION WATER CONTENT EQUAL TO RESIDUAL WATER CONTENT

EXTINCTION WATER CONTENT FOR CELL AT ROW     3, COLUMN     3 IS LESS THAN RESIDUAL WATER CONTENT-- SETTING EXTINCTION WATER CONTENT EQUAL TO RESIDUAL WATER CONTENT

EXTINCTION WATER CONTENT FOR CELL AT ROW     3, COLUMN     4 IS LESS THAN RESIDUAL WATER CONTENT-- SETTING EXTINCTION WATER CONTENT EQUAL TO RESIDUAL WATER CONTENT

EXTINCTION WATER CONTENT FOR CELL AT ROW     3, COLUMN     5 IS LESS THAN RESIDUAL WATER CONTENT-- SETTING EXTINCTION WATER CONTENT EQUAL TO RESIDUAL WATER CONTENT

EXTINCTION WATER CONTENT FOR CELL AT ROW     3, COLUMN     6 IS LESS THAN RESIDUAL WATER CONTENT-- SETTING EXTINCTION WATER CONTENT EQUAL TO RESIDUAL WATER CONTENT

EXTINCTION WATER CONTENT FOR CELL AT ROW     3, COLUMN     7 IS LESS THAN RESIDUAL WATER CONTENT-- SETTING EXTINCTION WATER CONTENT EQUAL TO RESIDUAL WATER CONTENT

EXTINCTION WATER CONTENT FOR CELL AT ROW     3, COLUMN     8 IS LESS THAN RESIDUAL WATER CONTENT-- SETTING EXTINCTION WATER CONTENT EQUAL TO RESIDUAL WATER CONTENT

EXTINCTION WATER CONTENT FOR CELL AT ROW     4, COLUMN     1 IS LESS THAN RESIDUAL WATER CONTENT-- SETTING EXTINCTION WATER CONTENT EQUAL TO RESIDUAL WATER CONTENT

EXTINCTION WATER CONTENT FOR CELL AT ROW     4, COLUMN     2 IS LESS THAN RESIDUAL WATER CONTENT-- SETTING EXTINCTION WATER CONTENT EQUAL TO RESIDUAL WATER CONTENT

EXTINCTION WATER CONTENT FOR CELL AT ROW     4, COLUMN     3 IS LESS THAN RESIDUAL WATER CONTENT-- SETTING EXTINCTION WATER CONTENT EQUAL TO RESIDUAL WATER CONTENT

EXTINCTION WATER CONTENT FOR CELL AT ROW     4, COLUMN     4 IS LESS THAN RESIDUAL WATER CONTENT-- SETTING EXTINCTION WATER CONTENT EQUAL TO RESIDUAL WATER CONTENT

EXTINCTION WATER CONTENT FOR CELL AT ROW     4, COLUMN     5 IS LESS THAN RESIDUAL WATER CONTENT-- SETTING EXTINCTION WATER CONTENT EQUAL TO RESIDUAL WATER CONTENT

EXTINCTION WATER CONTENT FOR CELL AT ROW     4, COLUMN     6 IS LESS THAN RESIDUAL WATER CONTENT-- SETTING EXTINCTION WATER CONTENT EQUAL TO RESIDUAL WATER CONTENT

EXTINCTION WATER CONTENT FOR CELL AT ROW     4, COLUMN     7 IS LESS THAN RESIDUAL WATER CONTENT-- SETTING EXTINCTION WATER CONTENT EQUAL TO RESIDUAL WATER CONTENT

EXTINCTION WATER CONTENT FOR CELL AT ROW     4, COLUMN     8 IS LESS THAN RESIDUAL WATER CONTENT-- SETTING EXTINCTION WATER CONTENT EQUAL TO RESIDUAL WATER CONTENT

EXTINCTION WATER CONTENT FOR CELL AT ROW     4, COLUMN     9 IS LESS THAN RESIDUAL WATER CONTENT-- SETTING EXTINCTION WATER CONTENT EQUAL TO RESIDUAL WATER CONTENT

EXTINCTION WATER CONTENT FOR CELL AT ROW     5, COLUMN     1 IS LESS THAN RESIDUAL WATER CONTENT-- SETTING EXTINCTION WATER CONTENT EQUAL TO RESIDUAL WATER CONTENT

EXTINCTION WATER CONTENT FOR CELL AT ROW     5, COLUMN     2 IS LESS THAN RESIDUAL WATER CONTENT-- SETTING EXTINCTION WATER CONTENT EQUAL TO RESIDUAL WATER CONTENT

EXTINCTION WATER CONTENT FOR CELL AT ROW     5, COLUMN     3 IS LESS THAN RESIDUAL WATER CONTENT-- SETTING EXTINCTION WATER CONTENT EQUAL TO RESIDUAL WATER CONTENT

EXTINCTION WATER CONTENT FOR CELL AT ROW     5, COLUMN     4 IS LESS THAN RESIDUAL WATER CONTENT-- SETTING EXTINCTION WATER CONTENT EQUAL TO RESIDUAL WATER CONTENT

EXTINCTION WATER CONTENT FOR CELL AT ROW     5, COLUMN     5 IS LESS THAN RESIDUAL WATER CONTENT-- SETTING EXTINCTION WATER CONTENT EQUAL TO RESIDUAL WATER CONTENT

EXTINCTION WATER CONTENT FOR CELL AT ROW     5, COLUMN     6 IS LESS THAN RESIDUAL WATER CONTENT-- SETTING EXTINCTION WATER CONTENT EQUAL TO RESIDUAL WATER CONTENT

EXTINCTION WATER CONTENT FOR CELL AT ROW     5, COLUMN     7 IS LESS THAN RESIDUAL WATER CONTENT-- SETTING EXTINCTION WATER CONTENT EQUAL TO RESIDUAL WATER CONTENT

EXTINCTION WATER CONTENT FOR CELL AT ROW     5, COLUMN     8 IS LESS THAN RESIDUAL WATER CONTENT-- SETTING EXTINCTION WATER CONTENT EQUAL TO RESIDUAL WATER CONTENT

EXTINCTION WATER CONTENT FOR CELL AT ROW     5, COLUMN     9 IS LESS THAN RESIDUAL WATER CONTENT-- SETTING EXTINCTION WATER CONTENT EQUAL TO RESIDUAL WATER CONTENT

EXTINCTION WATER CONTENT FOR CELL AT ROW     5, COLUMN    10 IS LESS THAN RESIDUAL WATER CONTENT-- SETTING EXTINCTION WATER CONTENT EQUAL TO RESIDUAL WATER CONTENT

EXTINCTION WATER CONTENT FOR CELL AT ROW     6, COLUMN     1 IS LESS THAN RESIDUAL WATER CONTENT-- SETTING EXTINCTION WATER CONTENT EQUAL TO RESIDUAL WATER CONTENT

EXTINCTION WATER CONTENT FOR CELL AT ROW     6, COLUMN     2 IS LESS THAN RESIDUAL WATER CONTENT-- SETTING EXTINCTION WATER CONTENT EQUAL TO RESIDUAL WATER CONTENT

EXTINCTION WATER CONTENT FOR CELL AT ROW     6, COLUMN     3 IS LESS THAN RESIDUAL WATER CONTENT-- SETTING EXTINCTION WATER CONTENT EQUAL TO RESIDUAL WATER CONTENT

EXTINCTION WATER CONTENT FOR CELL AT ROW     6, COLUMN     4 IS LESS THAN RESIDUAL WATER CONTENT-- SETTING EXTINCTION WATER CONTENT EQUAL TO RESIDUAL WATER CONTENT

EXTINCTION WATER CONTENT FOR CELL AT ROW     6, COLUMN     5 IS LESS THAN RESIDUAL WATER CONTENT-- SETTING EXTINCTION WATER CONTENT EQUAL TO RESIDUAL WATER CONTENT

EXTINCTION WATER CONTENT FOR CELL AT ROW     6, COLUMN     6 IS LESS THAN RESIDUAL WATER CONTENT-- SETTING EXTINCTION WATER CONTENT EQUAL TO RESIDUAL WATER CONTENT

EXTINCTION WATER CONTENT FOR CELL AT ROW     6, COLUMN     7 IS LESS THAN RESIDUAL WATER CONTENT-- SETTING EXTINCTION WATER CONTENT EQUAL TO RESIDUAL WATER CONTENT

EXTINCTION WATER CONTENT FOR CELL AT ROW     6, COLUMN     8 IS LESS THAN RESIDUAL WATER CONTENT-- SETTING EXTINCTION WATER CONTENT EQUAL TO RESIDUAL WATER CONTENT

EXTINCTION WATER CONTENT FOR CELL AT ROW     6, COLUMN     9 IS LESS THAN RESIDUAL WATER CONTENT-- SETTING EXTINCTION WATER CONTENT EQUAL TO RESIDUAL WATER CONTENT

EXTINCTION WATER CONTENT FOR CELL AT ROW     6, COLUMN    10 IS LESS THAN RESIDUAL WATER CONTENT-- SETTING EXTINCTION WATER CONTENT EQUAL TO RESIDUAL WATER CONTENT

EXTINCTION WATER CONTENT FOR CELL AT ROW     7, COLUMN     1 IS LESS THAN RESIDUAL WATER CONTENT-- SETTING EXTINCTION WATER CONTENT EQUAL TO RESIDUAL WATER CONTENT

EXTINCTION WATER CONTENT FOR CELL AT ROW     7, COLUMN     2 IS LESS THAN RESIDUAL WATER CONTENT-- SETTING EXTINCTION WATER CONTENT EQUAL TO RESIDUAL WATER CONTENT

EXTINCTION WATER CONTENT FOR CELL AT ROW     7, COLUMN     3 IS LESS THAN RESIDUAL WATER CONTENT-- SETTING EXTINCTION WATER CONTENT EQUAL TO RESIDUAL WATER CONTENT

EXTINCTION WATER CONTENT FOR CELL AT ROW     7, COLUMN     4 IS LESS THAN RESIDUAL WATER CONTENT-- SETTING EXTINCTION WATER CONTENT EQUAL TO RESIDUAL WATER CONTENT

EXTINCTION WATER CONTENT FOR CELL AT ROW     7, COLUMN     5 IS LESS THAN RESIDUAL WATER CONTENT-- SETTING EXTINCTION WATER CONTENT EQUAL TO RESIDUAL WATER CONTENT

EXTINCTION WATER CONTENT FOR CELL AT ROW     7, COLUMN     6 IS LESS THAN RESIDUAL WATER CONTENT-- SETTING EXTINCTION WATER CONTENT EQUAL TO RESIDUAL WATER CONTENT

EXTINCTION WATER CONTENT FOR CELL AT ROW     7, COLUMN     7 IS LESS THAN RESIDUAL WATER CONTENT-- SETTING EXTINCTION WATER CONTENT EQUAL TO RESIDUAL WATER CONTENT

EXTINCTION WATER CONTENT FOR CELL AT ROW     7, COLUMN     8 IS LESS THAN RESIDUAL WATER CONTENT-- SETTING EXTINCTION WATER CONTENT EQUAL TO RESIDUAL WATER CONTENT

EXTINCTION WATER CONTENT FOR CELL AT ROW     7, COLUMN     9 IS LESS THAN RESIDUAL WATER CONTENT-- SETTING EXTINCTION WATER CONTENT EQUAL TO RESIDUAL WATER CONTENT

EXTINCTION WATER CONTENT FOR CELL AT ROW     8, COLUMN     2 IS LESS THAN RESIDUAL WATER CONTENT-- SETTING EXTINCTION WATER CONTENT EQUAL TO RESIDUAL WATER CONTENT

EXTINCTION WATER CONTENT FOR CELL AT ROW     8, COLUMN     3 IS LESS THAN RESIDUAL WATER CONTENT-- SETTING EXTINCTION WATER CONTENT EQUAL TO RESIDUAL WATER CONTENT

EXTINCTION WATER CONTENT FOR CELL AT ROW     8, COLUMN     4 IS LESS THAN RESIDUAL WATER CONTENT-- SETTING EXTINCTION WATER CONTENT EQUAL TO RESIDUAL WATER CONTENT

EXTINCTION WATER CONTENT FOR CELL AT ROW     8, COLUMN     5 IS LESS THAN RESIDUAL WATER CONTENT-- SETTING EXTINCTION WATER CONTENT EQUAL TO RESIDUAL WATER CONTENT

EXTINCTION WATER CONTENT FOR CELL AT ROW     8, COLUMN     6 IS LESS THAN RESIDUAL WATER CONTENT-- SETTING EXTINCTION WATER CONTENT EQUAL TO RESIDUAL WATER CONTENT

EXTINCTION WATER CONTENT FOR CELL AT ROW     8, COLUMN     7 IS LESS THAN RESIDUAL WATER CONTENT-- SETTING EXTINCTION WATER CONTENT EQUAL TO RESIDUAL WATER CONTENT

EXTINCTION WATER CONTENT FOR CELL AT ROW     8, COLUMN     8 IS LESS THAN RESIDUAL WATER CONTENT-- SETTING EXTINCTION WATER CONTENT EQUAL TO RESIDUAL WATER CONTENT

EXTINCTION WATER CONTENT FOR CELL AT ROW     8, COLUMN     9 IS LESS THAN RESIDUAL WATER CONTENT-- SETTING EXTINCTION WATER CONTENT EQUAL TO RESIDUAL WATER CONTENT

EXTINCTION WATER CONTENT FOR CELL AT ROW     9, COLUMN     2 IS LESS THAN RESIDUAL WATER CONTENT-- SETTING EXTINCTION WATER CONTENT EQUAL TO RESIDUAL WATER CONTENT

EXTINCTION WATER CONTENT FOR CELL AT ROW     9, COLUMN     3 IS LESS THAN RESIDUAL WATER CONTENT-- SETTING EXTINCTION WATER CONTENT EQUAL TO RESIDUAL WATER CONTENT

EXTINCTION WATER CONTENT FOR CELL AT ROW     9, COLUMN     4 IS LESS THAN RESIDUAL WATER CONTENT-- SETTING EXTINCTION WATER CONTENT EQUAL TO RESIDUAL WATER CONTENT

EXTINCTION WATER CONTENT FOR CELL AT ROW     9, COLUMN     5 IS LESS THAN RESIDUAL WATER CONTENT-- SETTING EXTINCTION WATER CONTENT EQUAL TO RESIDUAL WATER CONTENT

EXTINCTION WATER CONTENT FOR CELL AT ROW     9, COLUMN     6 IS LESS THAN RESIDUAL WATER CONTENT-- SETTING EXTINCTION WATER CONTENT EQUAL TO RESIDUAL WATER CONTENT

EXTINCTION WATER CONTENT FOR CELL AT ROW     9, COLUMN     7 IS LESS THAN RESIDUAL WATER CONTENT-- SETTING EXTINCTION WATER CONTENT EQUAL TO RESIDUAL WATER CONTENT

EXTINCTION WATER CONTENT FOR CELL AT ROW     9, COLUMN     8 IS LESS THAN RESIDUAL WATER CONTENT-- SETTING EXTINCTION WATER CONTENT EQUAL TO RESIDUAL WATER CONTENT

EXTINCTION WATER CONTENT FOR CELL AT ROW     9, COLUMN     9 IS LESS THAN RESIDUAL WATER CONTENT-- SETTING EXTINCTION WATER CONTENT EQUAL TO RESIDUAL WATER CONTENT

EXTINCTION WATER CONTENT FOR CELL AT ROW    10, COLUMN     2 IS LESS THAN RESIDUAL WATER CONTENT-- SETTING EXTINCTION WATER CONTENT EQUAL TO RESIDUAL WATER CONTENT

EXTINCTION WATER CONTENT FOR CELL AT ROW    10, COLUMN     3 IS LESS THAN RESIDUAL WATER CONTENT-- SETTING EXTINCTION WATER CONTENT EQUAL TO RESIDUAL WATER CONTENT

EXTINCTION WATER CONTENT FOR CELL AT ROW    10, COLUMN     4 IS LESS THAN RESIDUAL WATER CONTENT-- SETTING EXTINCTION WATER CONTENT EQUAL TO RESIDUAL WATER CONTENT

EXTINCTION WATER CONTENT FOR CELL AT ROW    10, COLUMN     5 IS LESS THAN RESIDUAL WATER CONTENT-- SETTING EXTINCTION WATER CONTENT EQUAL TO RESIDUAL WATER CONTENT

EXTINCTION WATER CONTENT FOR CELL AT ROW    10, COLUMN     6 IS LESS THAN RESIDUAL WATER CONTENT-- SETTING EXTINCTION WATER CONTENT EQUAL TO RESIDUAL WATER CONTENT

EXTINCTION WATER CONTENT FOR CELL AT ROW    10, COLUMN     7 IS LESS THAN RESIDUAL WATER CONTENT-- SETTING EXTINCTION WATER CONTENT EQUAL TO RESIDUAL WATER CONTENT

EXTINCTION WATER CONTENT FOR CELL AT ROW    10, COLUMN     8 IS LESS THAN RESIDUAL WATER CONTENT-- SETTING EXTINCTION WATER CONTENT EQUAL TO RESIDUAL WATER CONTENT

EXTINCTION WATER CONTENT FOR CELL AT ROW    10, COLUMN     9 IS LESS THAN RESIDUAL WATER CONTENT-- SETTING EXTINCTION WATER CONTENT EQUAL TO RESIDUAL WATER CONTENT

EXTINCTION WATER CONTENT FOR CELL AT ROW    10, COLUMN    10 IS LESS THAN RESIDUAL WATER CONTENT-- SETTING EXTINCTION WATER CONTENT EQUAL TO RESIDUAL WATER CONTENT

EXTINCTION WATER CONTENT FOR CELL AT ROW    11, COLUMN     2 IS LESS THAN RESIDUAL WATER CONTENT-- SETTING EXTINCTION WATER CONTENT EQUAL TO RESIDUAL WATER CONTENT

EXTINCTION WATER CONTENT FOR CELL AT ROW    11, COLUMN     3 IS LESS THAN RESIDUAL WATER CONTENT-- SETTING EXTINCTION WATER CONTENT EQUAL TO RESIDUAL WATER CONTENT

EXTINCTION WATER CONTENT FOR CELL AT ROW    11, COLUMN     4 IS LESS THAN RESIDUAL WATER CONTENT-- SETTING EXTINCTION WATER CONTENT EQUAL TO RESIDUAL WATER CONTENT

EXTINCTION WATER CONTENT FOR CELL AT ROW    11, COLUMN     5 IS LESS THAN RESIDUAL WATER CONTENT-- SETTING EXTINCTION WATER CONTENT EQUAL TO RESIDUAL WATER CONTENT

EXTINCTION WATER CONTENT FOR CELL AT ROW    11, COLUMN     6 IS LESS THAN RESIDUAL WATER CONTENT-- SETTING EXTINCTION WATER CONTENT EQUAL TO RESIDUAL WATER CONTENT

EXTINCTION WATER CONTENT FOR CELL AT ROW    11, COLUMN     7 IS LESS THAN RESIDUAL WATER CONTENT-- SETTING EXTINCTION WATER CONTENT EQUAL TO RESIDUAL WATER CONTENT

EXTINCTION WATER CONTENT FOR CELL AT ROW    11, COLUMN     8 IS LESS THAN RESIDUAL WATER CONTENT-- SETTING EXTINCTION WATER CONTENT EQUAL TO RESIDUAL WATER CONTENT

EXTINCTION WATER CONTENT FOR CELL AT ROW    11, COLUMN     9 IS LESS THAN RESIDUAL WATER CONTENT-- SETTING EXTINCTION WATER CONTENT EQUAL TO RESIDUAL WATER CONTENT

EXTINCTION WATER CONTENT FOR CELL AT ROW    12, COLUMN     1 IS LESS THAN RESIDUAL WATER CONTENT-- SETTING EXTINCTION WATER CONTENT EQUAL TO RESIDUAL WATER CONTENT

EXTINCTION WATER CONTENT FOR CELL AT ROW    12, COLUMN     2 IS LESS THAN RESIDUAL WATER CONTENT-- SETTING EXTINCTION WATER CONTENT EQUAL TO RESIDUAL WATER CONTENT

EXTINCTION WATER CONTENT FOR CELL AT ROW    12, COLUMN     3 IS LESS THAN RESIDUAL WATER CONTENT-- SETTING EXTINCTION WATER CONTENT EQUAL TO RESIDUAL WATER CONTENT

EXTINCTION WATER CONTENT FOR CELL AT ROW    12, COLUMN     4 IS LESS THAN RESIDUAL WATER CONTENT-- SETTING EXTINCTION WATER CONTENT EQUAL TO RESIDUAL WATER CONTENT

EXTINCTION WATER CONTENT FOR CELL AT ROW    12, COLUMN     5 IS LESS THAN RESIDUAL WATER CONTENT-- SETTING EXTINCTION WATER CONTENT EQUAL TO RESIDUAL WATER CONTENT

EXTINCTION WATER CONTENT FOR CELL AT ROW    12, COLUMN     6 IS LESS THAN RESIDUAL WATER CONTENT-- SETTING EXTINCTION WATER CONTENT EQUAL TO RESIDUAL WATER CONTENT

EXTINCTION WATER CONTENT FOR CELL AT ROW    12, COLUMN     7 IS LESS THAN RESIDUAL WATER CONTENT-- SETTING EXTINCTION WATER CONTENT EQUAL TO RESIDUAL WATER CONTENT

EXTINCTION WATER CONTENT FOR CELL AT ROW    12, COLUMN     8 IS LESS THAN RESIDUAL WATER CONTENT-- SETTING EXTINCTION WATER CONTENT EQUAL TO RESIDUAL WATER CONTENT

EXTINCTION WATER CONTENT FOR CELL AT ROW    12, COLUMN     9 IS LESS THAN RESIDUAL WATER CONTENT-- SETTING EXTINCTION WATER CONTENT EQUAL TO RESIDUAL WATER CONTENT

EXTINCTION WATER CONTENT FOR CELL AT ROW    13, COLUMN     1 IS LESS THAN RESIDUAL WATER CONTENT-- SETTING EXTINCTION WATER CONTENT EQUAL TO RESIDUAL WATER CONTENT

EXTINCTION WATER CONTENT FOR CELL AT ROW    13, COLUMN     2 IS LESS THAN RESIDUAL WATER CONTENT-- SETTING EXTINCTION WATER CONTENT EQUAL TO RESIDUAL WATER CONTENT

EXTINCTION WATER CONTENT FOR CELL AT ROW    13, COLUMN     3 IS LESS THAN RESIDUAL WATER CONTENT-- SETTING EXTINCTION WATER CONTENT EQUAL TO RESIDUAL WATER CONTENT

EXTINCTION WATER CONTENT FOR CELL AT ROW    13, COLUMN     4 IS LESS THAN RESIDUAL WATER CONTENT-- SETTING EXTINCTION WATER CONTENT EQUAL TO RESIDUAL WATER CONTENT

EXTINCTION WATER CONTENT FOR CELL AT ROW    13, COLUMN     5 IS LESS THAN RESIDUAL WATER CONTENT-- SETTING EXTINCTION WATER CONTENT EQUAL TO RESIDUAL WATER CONTENT

EXTINCTION WATER CONTENT FOR CELL AT ROW    13, COLUMN     6 IS LESS THAN RESIDUAL WATER CONTENT-- SETTING EXTINCTION WATER CONTENT EQUAL TO RESIDUAL WATER CONTENT

EXTINCTION WATER CONTENT FOR CELL AT ROW    13, COLUMN     7 IS LESS THAN RESIDUAL WATER CONTENT-- SETTING EXTINCTION WATER CONTENT EQUAL TO RESIDUAL WATER CONTENT

EXTINCTION WATER CONTENT FOR CELL AT ROW    13, COLUMN     8 IS LESS THAN RESIDUAL WATER CONTENT-- SETTING EXTINCTION WATER CONTENT EQUAL TO RESIDUAL WATER CONTENT

EXTINCTION WATER CONTENT FOR CELL AT ROW    13, COLUMN     9 IS LESS THAN RESIDUAL WATER CONTENT-- SETTING EXTINCTION WATER CONTENT EQUAL TO RESIDUAL WATER CONTENT

EXTINCTION WATER CONTENT FOR CELL AT ROW    14, COLUMN     2 IS LESS THAN RESIDUAL WATER CONTENT-- SETTING EXTINCTION WATER CONTENT EQUAL TO RESIDUAL WATER CONTENT

EXTINCTION WATER CONTENT FOR CELL AT ROW    14, COLUMN     3 IS LESS THAN RESIDUAL WATER CONTENT-- SETTING EXTINCTION WATER CONTENT EQUAL TO RESIDUAL WATER CONTENT

EXTINCTION WATER CONTENT FOR CELL AT ROW    14, COLUMN     4 IS LESS THAN RESIDUAL WATER CONTENT-- SETTING EXTINCTION WATER CONTENT EQUAL TO RESIDUAL WATER CONTENT

EXTINCTION WATER CONTENT FOR CELL AT ROW    14, COLUMN     5 IS LESS THAN RESIDUAL WATER CONTENT-- SETTING EXTINCTION WATER CONTENT EQUAL TO RESIDUAL WATER CONTENT

EXTINCTION WATER CONTENT FOR CELL AT ROW    14, COLUMN     6 IS LESS THAN RESIDUAL WATER CONTENT-- SETTING EXTINCTION WATER CONTENT EQUAL TO RESIDUAL WATER CONTENT

EXTINCTION WATER CONTENT FOR CELL AT ROW    14, COLUMN     7 IS LESS THAN RESIDUAL WATER CONTENT-- SETTING EXTINCTION WATER CONTENT EQUAL TO RESIDUAL WATER CONTENT

EXTINCTION WATER CONTENT FOR CELL AT ROW    14, COLUMN     8 IS LESS THAN RESIDUAL WATER CONTENT-- SETTING EXTINCTION WATER CONTENT EQUAL TO RESIDUAL WATER CONTENT

EXTINCTION WATER CONTENT FOR CELL AT ROW    14, COLUMN     9 IS LESS THAN RESIDUAL WATER CONTENT-- SETTING EXTINCTION WATER CONTENT EQUAL TO RESIDUAL WATER CONTENT

EXTINCTION WATER CONTENT FOR CELL AT ROW    15, COLUMN     3 IS LESS THAN RESIDUAL WATER CONTENT-- SETTING EXTINCTION WATER CONTENT EQUAL TO RESIDUAL WATER CONTENT

EXTINCTION WATER CONTENT FOR CELL AT ROW    15, COLUMN     4 IS LESS THAN RESIDUAL WATER CONTENT-- SETTING EXTINCTION WATER CONTENT EQUAL TO RESIDUAL WATER CONTENT

EXTINCTION WATER CONTENT FOR CELL AT ROW    15, COLUMN     5 IS LESS THAN RESIDUAL WATER CONTENT-- SETTING EXTINCTION WATER CONTENT EQUAL TO RESIDUAL WATER CONTENT

EXTINCTION WATER CONTENT FOR CELL AT ROW    15, COLUMN     6 IS LESS THAN RESIDUAL WATER CONTENT-- SETTING EXTINCTION WATER CONTENT EQUAL TO RESIDUAL WATER CONTENT

       AIR ENTRY PRESSURE =  -1.10000    

            ROOT PRESSURE =  -75.0000    

            ROOT ACTIVITY =   1.00000    
 # AG segment list

 PROCESSING SEGMENT LIST

 FINISHED READING SEGMENT LIST
 # AG well list

 PROCESSING WELL LIST

 LAYER   ROW   COL   MAX STRESS RATE         
 --------------------------------------------
      1      1      6      4      -100.0    
      2      1      6      5      -100.0    
      3      1      7      4      -100.0    
      4      1      7      5      -100.0    
      5      1      8      4      -100.0    
      6      1      8      5      -100.0    

 FINISHED READING WELL LIST

      6 WELLS

 PROCESSING AG STRESS PERIOD DATA
 # AG stress period

 READING AG STRESS PERIOD DATA

 READING IRRIGATION SEGMENT

 READING IRRIGATION WELL

 READING SUPPLEMENTAL WELL

 END PROCESSING AG STRESS PERIOD DATA OPTIONS
 
 SOLVING FOR HEAD 
                                                   Max.-Head-Change                         Max.-Flux-Residual
  Residual-Control   Outer-Iter.   Inner-Iter.     Column Row Layer    Maximum-Head-Change  Column Row Layer    Maximum-Flux-Residual          L2-NORM 
          0                 1           6             2    2     1      -0.2844046734E+02       3    3    1        -0.3360741367E+01      0.9325516450E+01
          0                 2           6             1    1     1      -0.3130708681E+02       1   13    1        -0.6345308054E+02      0.6366583199E+02
          0                 3           5             1    1     1      -0.1456607629E+01       6   13    1        -0.2214585766E+01      0.3434032307E+01
          0                 4           5             5   13     1      -0.1651347360E+00       5   13    1        -0.3297688952E+00      0.3986820655E+00
          0                 5           4             5   14     1       0.3288135707E-01       5   13    1         0.1672898632E-01      0.2775051926E-01
          0                 6           2             5   14     1      -0.1283821879E-02       5   13    1        -0.6708580067E-03      0.2038004151E-02
          0                 7           1             5   10     1       0.1514364014E-04       5   10    1         0.2524418051E-04      0.8080299352E-04

    ------------------------------------------------
       NWT REQUIRED            7 OUTER ITERATIONS 
       AND A TOTAL OF         29 INNER ITERATIONS.
    ------------------------------------------------

 OUTPUT CONTROL FOR STRESS PERIOD    1   TIME STEP    1
    PRINT BUDGET
    PRINT HEAD FOR ALL LAYERS
    SAVE BUDGET
 UBDSV2 SAVING "   CONSTANT HEAD" ON UNIT 102 AT TIME STEP  1, STRESS PERIOD   1
 UBDSV1 SAVING "FLOW RIGHT FACE " ON UNIT 102 AT TIME STEP  1, STRESS PERIOD   1
 UBDSV1 SAVING "FLOW FRONT FACE " ON UNIT 102 AT TIME STEP  1, STRESS PERIOD   1

  HEAD DEP BOUNDS   PERIOD    1   STEP     1
 BOUNDARY      1   LAYER   1   ROW    13   COL     1   RATE   -0.286999    
 BOUNDARY      2   LAYER   1   ROW    14   COL     9   RATE    0.285642    



 STREAM LISTING     PERIOD      1   STEP        1

 LAYER ROW COL. STREAM  RCH.  FLOW INTO     FLOW TO   FLOW OUT OF   OVRLND.     DIRECT     STREAM       STREAM     STREAM     STREAM   STREAMBED  STREAMBED
                SEG.NO.  NO.  STRM. RCH.    AQUIFER    STRM. RCH.    RUNOFF     PRECIP       ET          HEAD       DEPTH      WIDTH   CONDCTNC.   GRADIENT

   1    1    1     1     1    3.7500E+00  8.5597E-02   3.6644E+00  0.000E+00  0.000E+00  0.000E+00  1.09373E+03  6.817E-01  5.166E+00  2.325E-02  1.227E+00
   1    2    2     1     2    3.6644E+00  1.3158E-01   3.5328E+00  0.000E+00  0.000E+00  0.000E+00  1.08873E+03  6.747E-01  5.115E+00  3.581E-02  1.225E+00
   1    3    3     1     3    3.5328E+00  1.1125E-01   3.4216E+00  0.000E+00  0.000E+00  0.000E+00  1.08309E+03  6.667E-01  5.057E+00  3.034E-02  1.222E+00
   1    3    4     1     4    3.4216E+00  1.0164E-01   3.3199E+00  0.000E+00  0.000E+00  0.000E+00  1.07807E+03  6.595E-01  5.004E+00  2.777E-02  1.220E+00
   1    4    5     2     1    1.3199E+00  2.4920E-01   1.0707E+00  0.000E+00  0.000E+00  0.000E+00  1.07213E+03  1.948E-01  1.200E+01  7.800E-02  1.065E+00
   1    5    6     2     2    1.0707E+00  1.9035E-01   8.8040E-01  0.000E+00  0.000E+00  0.000E+00  1.06668E+03  1.725E-01  1.200E+01  6.000E-02  1.057E+00
   1    6    6     2     3    8.8040E-01  1.8909E-01   6.9131E-01  0.000E+00  0.000E+00  0.000E+00  1.06194E+03  1.515E-01  1.200E+01  6.000E-02  1.050E+00
   1    7    6     2     4    6.9131E-01  1.8771E-01   5.0360E-01  0.000E+00  0.000E+00  0.000E+00  1.05720E+03  1.285E-01  1.200E+01  6.000E-02  1.043E+00
   1    8    6     2     5    5.0360E-01  1.8616E-01   3.1744E-01  0.000E+00  0.000E+00  0.000E+00  1.05246E+03  1.026E-01  1.200E+01  6.000E-02  1.034E+00
   1    3    5     3     1    2.0000E+00  2.8252E-01   1.7175E+00  0.000E+00  0.000E+00  0.000E+00  1.07555E+03  1.909E+00  9.636E+00  7.227E-02  1.955E+00
   1    3    6     3     2    1.7175E+00  2.4905E-01   1.4684E+00  0.000E+00  0.000E+00  0.000E+00  1.07264E+03  1.727E+00  8.909E+00  6.682E-02  1.864E+00
   1    3    7     3     3    1.4684E+00  1.9718E-01   1.2712E+00  0.000E+00  0.000E+00  0.000E+00  1.06987E+03  1.555E+00  8.218E+00  5.547E-02  1.777E+00
   1    4    8     3     4    1.2712E+00  2.2567E-01   1.0456E+00  0.000E+00  0.000E+00  0.000E+00  1.06682E+03  1.364E+00  7.455E+00  6.709E-02  1.682E+00
   1    5    8     3     5    1.0456E+00  1.5790E-01   8.8768E-01  0.000E+00  0.000E+00  0.000E+00  1.06362E+03  1.164E+00  6.655E+00  4.991E-02  1.582E+00
   1    6    8     3     6    8.8768E-01  5.5980E-02   8.3170E-01  0.000E+00  0.000E+00  0.000E+00  1.06158E+03  1.036E+00  6.145E+00  1.844E-02  1.518E+00
   1    5   10     4     1    1.0000E+01  9.0919E-02   9.9091E+00  0.000E+00  0.000E+00  0.000E+00  1.07836E+03  6.368E-01  1.000E+01  2.500E-02  1.212E+00
   1    5    9     4     2    9.9091E+00  1.8158E-01   9.7275E+00  0.000E+00  0.000E+00  0.000E+00  1.07154E+03  6.315E-01  1.000E+01  5.000E-02  1.211E+00
   1    6    8     4     3    9.7275E+00  1.2689E-01   9.6006E+00  0.000E+00  0.000E+00  0.000E+00  1.06381E+03  6.256E-01  1.000E+01  3.500E-02  1.209E+00
   1    6    8     5     1    1.0432E+01  2.2686E-01   1.0205E+01  0.000E+00  0.000E+00  0.000E+00  1.05868E+03  6.790E-01  1.542E+01  6.166E-02  1.226E+00
   1    7    7     5     2    1.0205E+01  2.7894E-01   9.9265E+00  0.000E+00  0.000E+00  0.000E+00  1.05417E+03  6.732E-01  1.519E+01  7.594E-02  1.224E+00
   1    8    7     5     3    9.9265E+00  1.9221E-01   9.7343E+00  0.000E+00  0.000E+00  0.000E+00  1.04992E+03  6.676E-01  1.497E+01  5.241E-02  1.223E+00
   1    8    6     5     4    9.7343E+00  1.3577E-01   9.5985E+00  0.000E+00  0.000E+00  0.000E+00  1.04691E+03  6.637E-01  1.482E+01  3.706E-02  1.221E+00
   1    9    6     6     1    9.5985E+00  2.2097E-01   9.3776E+00  0.000E+00  0.000E+00  0.000E+00  1.04341E+03  6.828E-01  1.200E+01  6.000E-02  1.228E+00
   1   10    7     6     2    9.3776E+00  2.2039E-01   9.1572E+00  0.000E+00  0.000E+00  0.000E+00  1.03885E+03  6.732E-01  1.200E+01  6.000E-02  1.224E+00
   1   11    7     6     3    9.1572E+00  2.1981E-01   8.9374E+00  0.000E+00  0.000E+00  0.000E+00  1.03430E+03  6.636E-01  1.200E+01  6.000E-02  1.221E+00
   1   12    7     6     4    8.9374E+00  2.1923E-01   8.7181E+00  0.000E+00  0.000E+00  0.000E+00  1.02974E+03  6.539E-01  1.200E+01  6.000E-02  1.218E+00
   1   13    7     6     5    8.7181E+00 -1.1600E-01   8.8341E+00  0.000E+00  0.000E+00  0.000E+00  1.02656E+03  6.516E-01  1.200E+01  2.400E-01 -1.611E-01
   1   14    9     7     1    1.5000E+02  1.3341E+00   1.4867E+02  0.000E+00  0.000E+00  0.000E+00  1.03987E+03  2.288E+00  5.529E+01  5.593E-01  7.951E-01
   1   13    8     7     2    1.4867E+02  1.8365E+00   1.4683E+02  0.000E+00  0.000E+00  0.000E+00  1.03478E+03  2.279E+00  5.526E+01  6.148E-01  9.957E-01
   1   13    7     7     3    1.4683E+02  1.4776E+00   1.4535E+02  0.000E+00  0.000E+00  0.000E+00  1.02969E+03  2.270E+00  5.522E+01  5.585E-01  8.819E-01
   1   13    6     8     1    1.5419E+02  8.2938E-01   1.5336E+02  0.000E+00  0.000E+00  0.000E+00  1.02472E+03  2.843E+00  4.123E+01  4.201E-01  6.581E-01
   1   13    5     8     2    1.5336E+02  1.0150E-01   1.5326E+02  0.000E+00  0.000E+00  0.000E+00  1.01846E+03  2.840E+00  4.118E+01  4.196E-01  8.063E-02
   1   13    4     8     3    1.5326E+02 -2.6779E+00   1.5593E+02  0.000E+00  0.000E+00  0.000E+00  1.01222E+03  2.849E+00  4.131E+01  4.210E+00 -2.121E-01
   1   13    3     8     4    1.5593E+02 -3.7559E+00   1.5969E+02  0.000E+00  0.000E+00  0.000E+00  1.00600E+03  2.871E+00  4.163E+01  4.242E+00 -2.951E-01
   1   13    2     8     5    1.5969E+02 -2.6055E+00   1.6229E+02  0.000E+00  0.000E+00  0.000E+00  9.99768E+02  2.893E+00  4.194E+01  4.274E+00 -2.032E-01
   1   13    1     8     6    1.6229E+02 -1.9842E+00   1.6428E+02  0.000E+00  0.000E+00  0.000E+00  9.94783E+02  2.908E+00  4.217E+01  2.578E+00 -2.566E-01
   1    8    6     9     1    3.1744E-01  0.0000E+00   3.1744E-01  0.000E+00  0.000E+00  0.000E+00  1.07904E+03  2.859E-01  4.000E+00  0.000E+00  1.095E+00
   1    8    5     9     2    3.1744E-01  0.0000E+00   3.1744E-01  0.000E+00  0.000E+00  0.000E+00  1.07854E+03  2.859E-01  4.000E+00  0.000E+00  1.095E+00



 UBDSV3 SAVING "           GW ET" ON UNIT  61 AT TIME STEP  1, STRESS PERIOD   1
 UBDSV3 SAVING "    UZF RECHARGE" ON UNIT  61 AT TIME STEP  1, STRESS PERIOD   1
 UBDSV3 SAVING " SURFACE LEAKAGE" ON UNIT  61 AT TIME STEP  1, STRESS PERIOD   1
 UBDSV3 SAVING "       HORT+DUNN" ON UNIT  61 AT TIME STEP  1, STRESS PERIOD   1
 UBDSV3 SAVING "  STORAGE CHANGE" ON UNIT  61 AT TIME STEP  1, STRESS PERIOD   1


UNSATURATED ZONE PACKAGE VOLUMETRIC BUDGET FOR  TIME STEP     1 STRESS PERIOD    1
  ------------------------------------------------------------------------------



     CUMULATIVE VOLUMES      L**3       RATES FOR THIS TIME STEP      L**3/T
     ------------------                 ------------------------

           IN:                                      IN:
           ---                                      ---
        INFILTRATION =       73224.0000          INFILTRATION =           0.8475

          OUT:                                     OUT:
          ----                                     ----
              UZF ET =       0.0000E+00                UZF ET =       0.0000E+00
        UZF RECHARGE =       73224.0000          UZF RECHARGE =           0.8475

            IN - OUT =       0.0000E+00              IN - OUT =       0.0000E+00

          STORAGE:                                 STORAGE:
          --------                                 --------
      STORAGE CHANGE =       0.0000E+00        STORAGE CHANGE =       0.0000E+00

 PERCENT DISCREPANCY IS DIFFERENCE BETWEEN IN-OUT MINUS CHANGE IN STORAGE
 DIVIDED BY THE AVERAGE OF IN AND OUT TIMES 100

 PERCENT DISCREPANCY =           0.00     PERCENT DISCREPANCY =           0.00






1
              HEAD IN LAYER   1 AT END OF TIME STEP   1 IN STRESS PERIOD    1
  ---------------------------------------------------------------------------

           1       2       3       4       5       6       7       8       9      10
 ...................................................................................
   1  1032.36 1031.32 6999.00 6999.00 6999.00 6999.00 6999.00 6999.00 6999.00 6999.00
   2  1031.40 1030.16 1029.57 6999.00 6999.00 1030.68 1030.83 1030.79 6999.00 6999.00
   3  6999.00 1029.27 1028.96 1028.73 1029.27 1029.90 1030.40 1030.36 6999.00 6999.00
   4  1028.56 1028.52 1028.34 1028.16 1028.23 1028.29 1028.78 1029.83 1029.56 6999.00
   5  1028.12 1027.75 1027.58 1027.51 1027.60 1027.81 1027.98 1028.47 1029.09 1029.62
   6  1027.56 1027.01 1026.83 1026.80 1026.92 1027.25 1027.55 1028.07 1028.52 1029.44
   7  1027.07 1026.08 1025.91 1025.95 1026.13 1026.54 1026.97 1027.44 1027.95 6999.00
   8  6999.00 1024.71 1024.75 1024.91 1025.14 1025.64 1026.08 1026.79 1027.35 6999.00
   9  6999.00 1022.69 1023.02 1023.48 1023.87 1024.53 1025.04 1025.79 1026.90 6999.00
  10  6999.00 1019.87 1020.64 1021.68 1022.47 1023.48 1024.39 1025.45 1027.06 1027.71
  11  6999.00 1015.35 1016.78 1019.32 1020.95 1022.68 1024.21 1025.99 1028.18 6999.00
  12  1001.91 1007.94 1012.08 1016.04 1019.32 1022.30 1024.79 1028.19 1031.18 6999.00
  13   995.55 1000.38 1006.88 1012.86 1018.22 1022.74 1027.04 1031.79 1034.63 6999.00
  14  6999.00 1005.79 1008.88 1013.53 1018.29 1022.70 1027.60 1033.07 1037.48 6999.00
  15  6999.00 6999.00 1012.51 1015.23 1018.70 1021.73 6999.00 6999.00 6999.00 6999.00
1
  VOLUMETRIC BUDGET FOR ENTIRE MODEL AT END OF TIME STEP    1, STRESS PERIOD   1
  ------------------------------------------------------------------------------

     CUMULATIVE VOLUMES      L**3       RATES FOR THIS TIME STEP      L**3/T
     ------------------                 ------------------------

           IN:                                      IN:
           ---                                      ---
             STORAGE     =           0.0000               STORAGE     =           0.0000
       CONSTANT HEAD     =           0.0000         CONSTANT HEAD     =           0.0000
     HEAD DEP BOUNDS     =       24679.4375       HEAD DEP BOUNDS     =           0.2856
      STREAM LEAKAGE     =      889354.3750        STREAM LEAKAGE     =          10.2935
        UZF RECHARGE     =       73223.9531          UZF RECHARGE     =           0.8475
               GW ET     =           0.0000                 GW ET     =           0.0000
     SURFACE LEAKAGE     =           0.0000       SURFACE LEAKAGE     =           0.0000

                TOTAL IN =      987257.7500                  TOTAL IN =          11.4266

          OUT:                                     OUT:
          ----                                     ----
             STORAGE     =           0.0000               STORAGE     =           0.0000
       CONSTANT HEAD     =           0.0000         CONSTANT HEAD     =           0.0000
     HEAD DEP BOUNDS     =       24796.7051       HEAD DEP BOUNDS     =           0.2870
      STREAM LEAKAGE     =      962460.9375        STREAM LEAKAGE     =          11.1396
        UZF RECHARGE     =           0.0000          UZF RECHARGE     =           0.0000
               GW ET     =           0.0000                 GW ET     =           0.0000
     SURFACE LEAKAGE     =           0.0000       SURFACE LEAKAGE     =           0.0000

               TOTAL OUT =      987257.6250                 TOTAL OUT =          11.4266

                IN - OUT =           0.1250                  IN - OUT =       1.9073E-06

     PERCENT DISCREPANCY =           0.00         PERCENT DISCREPANCY =           0.00






         TIME SUMMARY AT END OF TIME STEP    1 IN STRESS PERIOD    1
                    SECONDS     MINUTES      HOURS       DAYS        YEARS
                    -----------------------------------------------------------
   TIME STEP LENGTH  86400.      1440.0      24.000      1.0000     2.73785E-03
 STRESS PERIOD TIME  86400.      1440.0      24.000      1.0000     2.73785E-03
         TOTAL TIME  86400.      1440.0      24.000      1.0000     2.73785E-03
1
1
                            STRESS PERIOD NO.    2, LENGTH =   2630000.    
                            -----------------------------------------------

                              NUMBER OF TIME STEPS =    30

                               MULTIPLIER FOR DELT =     1.000

                            INITIAL TIME STEP SIZE =   87666.66    

 REUSING NON-PARAMETER GHB CELLS FROM LAST STRESS PERIOD

      2 GHB CELLS

 REUSING STREAM SEGMENT DATA FROM LAST STRESS PERIOD



            AREAL INFILTRATION RATE
 READING ON UNIT   19 WITH FORMAT: (10F4.0)            

            1           2           3           4           5           6           7           8           9          10
 ........................................................................................................................
   1   1.2000E-09   0.000       0.000       0.000       0.000       0.000       0.000       0.000       0.000       0.000    
   2   2.1000E-09  2.0000E-09  8.0000E-10  8.5000E-09   0.000       0.000       0.000       0.000       0.000       0.000    
   3   5.0000E-10  1.1000E-09  8.8000E-09  5.5000E-09   0.000       0.000       0.000       0.000       0.000       0.000    
   4   8.5000E-09  1.1000E-09  1.1000E-09  1.1000E-09  2.0000E-09   0.000       0.000       0.000       0.000       0.000    
   5   8.5000E-09  1.1000E-09  1.1000E-09  1.1000E-09  1.1000E-09   0.000       0.000       0.000       0.000       0.000    
   6   8.5000E-09  5.2000E-09  2.1000E-09  1.1000E-09  1.5000E-09   0.000       0.000       0.000       0.000       0.000    
   7   8.5000E-09  5.2000E-09  2.1000E-09  1.2000E-09  2.0000E-09   0.000       0.000       0.000       0.000       0.000    
   8   5.0000E-10  5.2000E-09  2.1000E-09  1.2000E-09  5.0000E-09   0.000       0.000       0.000       0.000       0.000    
   9   5.0000E-10  5.2000E-09  2.1000E-09  1.2000E-09  5.0000E-09   0.000       0.000       0.000       0.000       0.000    
  10   5.0000E-10  5.2000E-09  2.1000E-09  1.2000E-09  5.8000E-09   0.000       0.000       0.000       0.000       0.000    
  11   1.0000E-10  1.1000E-09  1.1000E-09  1.2000E-09  5.0000E-09   0.000       0.000       0.000       0.000       0.000    
  12   1.1000E-09  1.1000E-09  1.1000E-09  1.1000E-09  2.0000E-09   0.000       0.000       0.000       0.000       0.000    
  13   1.1000E-09  2.2000E-09  2.2000E-09  2.1000E-09  1.0000E-09   0.000       0.000       0.000       0.000       0.000    
  14   2.0000E-10  5.5000E-09  5.5000E-09  5.2000E-09  1.0000E-09   0.000       0.000       0.000       0.000       0.000    
  15    0.000      8.8000E-09  8.8000E-09   0.000       0.000       0.000       0.000       0.000       0.000       0.000    

                  ET RATE =  5.000000E-10

 USING ET EXTINCTION DEPTH FROM PREVIOUS STRESS PERIOD. CURRENT PERIOD IS:       2

 USING EXTINCTION WATER CONTENT FROM PREVIOUS STRESS PERIOD. CURRENT PERIOD IS:       2

 USING AIR ENTRY PRESSURE FROM PREVIOUS STRESS PERIOD. CURRENT PERIOD IS:       2

 USING ROOT PRESSURE HEAD FROM PREVIOUS STRESS PERIOD. CURRENT PERIOD IS:       2

 USING ROOT ACTIVITY FROM PREVIOUS STRESS PERIOD. CURRENT PERIOD IS:       2

 PROCESSING AG STRESS PERIOD DATA

 READING AG STRESS PERIOD DATA

 READING IRRIGATION SEGMENT

 READING IRRIGATION WELL

 READING SUPPLEMENTAL WELL

 END PROCESSING AG STRESS PERIOD DATA OPTIONS
 
 SOLVING FOR HEAD 
                                                   Max.-Head-Change                         Max.-Flux-Residual
  Residual-Control   Outer-Iter.   Inner-Iter.     Column Row Layer    Maximum-Head-Change  Column Row Layer    Maximum-Flux-Residual          L2-NORM 
          0                 1           2             4   13     1       0.4640226109E-02       4   13    1         0.2659077145E+00      0.5696977359E+00
          0                 2           2             4   13     1      -0.4465623878E-03       4   13    1        -0.2631133966E-01      0.5588709628E-01
          0                 3           1             4   13     1       0.2995290042E-04       4   13    1         0.1814495435E-02      0.3811418515E-02

    ------------------------------------------------
       NWT REQUIRED            3 OUTER ITERATIONS 
       AND A TOTAL OF          5 INNER ITERATIONS.
    ------------------------------------------------

 OUTPUT CONTROL FOR STRESS PERIOD    2   TIME STEP    1
    PRINT BUDGET
    PRINT HEAD FOR ALL LAYERS
    SAVE BUDGET
 UBDSV1 SAVING "         STORAGE" ON UNIT 102 AT TIME STEP  1, STRESS PERIOD   2
 UBDSV2 SAVING "   CONSTANT HEAD" ON UNIT 102 AT TIME STEP  1, STRESS PERIOD   2
 UBDSV1 SAVING "FLOW RIGHT FACE " ON UNIT 102 AT TIME STEP  1, STRESS PERIOD   2
 UBDSV1 SAVING "FLOW FRONT FACE " ON UNIT 102 AT TIME STEP  1, STRESS PERIOD   2

  HEAD DEP BOUNDS   PERIOD    2   STEP     1
 BOUNDARY      1   LAYER   1   ROW    13   COL     1   RATE   -0.287089    
 BOUNDARY      2   LAYER   1   ROW    14   COL     9   RATE    0.285643    



 STREAM LISTING     PERIOD      2   STEP        1

 LAYER ROW COL. STREAM  RCH.  FLOW INTO     FLOW TO   FLOW OUT OF   OVRLND.     DIRECT     STREAM       STREAM     STREAM     STREAM   STREAMBED  STREAMBED
                SEG.NO.  NO.  STRM. RCH.    AQUIFER    STRM. RCH.    RUNOFF     PRECIP       ET          HEAD       DEPTH      WIDTH   CONDCTNC.   GRADIENT

   1    1    1     1     1    1.6500E+01  1.9759E-01   1.6302E+01  0.000E+00  0.000E+00  0.000E+00  1.09409E+03  1.039E+00  1.087E+01  4.893E-02  1.346E+00
   1    2    2     1     2    1.6302E+01  3.0466E-01   1.5998E+01  0.000E+00  0.000E+00  0.000E+00  1.08909E+03  1.034E+00  1.079E+01  7.552E-02  1.345E+00
   1    3    3     1     3    1.5998E+01  2.5853E-01   1.5739E+01  0.000E+00  0.000E+00  0.000E+00  1.08345E+03  1.029E+00  1.070E+01  6.417E-02  1.343E+00
   1    3    4     1     4    1.5739E+01  2.3700E-01   1.5502E+01  0.000E+00  0.000E+00  0.000E+00  1.07843E+03  1.024E+00  1.061E+01  5.889E-02  1.341E+00
   1    4    5     2     1    1.3502E+01  2.9865E-01   1.3204E+01  0.000E+00  0.000E+00  0.000E+00  1.07276E+03  8.289E-01  1.200E+01  7.800E-02  1.276E+00
   1    5    6     2     2    1.3204E+01  2.2914E-01   1.2974E+01  0.000E+00  0.000E+00  0.000E+00  1.06733E+03  8.190E-01  1.200E+01  6.000E-02  1.273E+00
   1    6    6     2     3    1.2974E+01  2.2862E-01   1.2746E+01  0.000E+00  0.000E+00  0.000E+00  1.06260E+03  8.104E-01  1.200E+01  6.000E-02  1.270E+00
   1    7    6     2     4    1.2746E+01  2.2810E-01   1.2518E+01  0.000E+00  0.000E+00  0.000E+00  1.05788E+03  8.017E-01  1.200E+01  6.000E-02  1.267E+00
   1    8    6     2     5    1.2518E+01  2.2758E-01   1.2290E+01  0.000E+00  0.000E+00  0.000E+00  1.05315E+03  7.930E-01  1.200E+01  6.000E-02  1.264E+00
   1    3    5     3     1    2.0000E+00  2.8252E-01   1.7175E+00  0.000E+00  0.000E+00  0.000E+00  1.07555E+03  1.909E+00  9.636E+00  7.227E-02  1.955E+00
   1    3    6     3     2    1.7175E+00  2.4905E-01   1.4684E+00  0.000E+00  0.000E+00  0.000E+00  1.07264E+03  1.727E+00  8.909E+00  6.682E-02  1.864E+00
   1    3    7     3     3    1.4684E+00  1.9718E-01   1.2712E+00  0.000E+00  0.000E+00  0.000E+00  1.06987E+03  1.555E+00  8.218E+00  5.547E-02  1.777E+00
   1    4    8     3     4    1.2712E+00  2.2567E-01   1.0456E+00  0.000E+00  0.000E+00  0.000E+00  1.06682E+03  1.364E+00  7.455E+00  6.709E-02  1.682E+00
   1    5    8     3     5    1.0456E+00  1.5790E-01   8.8768E-01  0.000E+00  0.000E+00  0.000E+00  1.06362E+03  1.164E+00  6.655E+00  4.991E-02  1.582E+00
   1    6    8     3     6    8.8768E-01  5.5980E-02   8.3170E-01  0.000E+00  0.000E+00  0.000E+00  1.06158E+03  1.036E+00  6.145E+00  1.844E-02  1.518E+00
   1    5   10     4     1    1.0000E+01  9.0919E-02   9.9091E+00  0.000E+00  0.000E+00  0.000E+00  1.07836E+03  6.368E-01  1.000E+01  2.500E-02  1.212E+00
   1    5    9     4     2    9.9091E+00  1.8158E-01   9.7275E+00  0.000E+00  0.000E+00  0.000E+00  1.07154E+03  6.315E-01  1.000E+01  5.000E-02  1.211E+00
   1    6    8     4     3    9.7275E+00  1.2689E-01   9.6006E+00  0.000E+00  0.000E+00  0.000E+00  1.06381E+03  6.256E-01  1.000E+01  3.500E-02  1.209E+00
   1    6    8     5     1    1.0432E+01  2.2686E-01   1.0205E+01  0.000E+00  0.000E+00  0.000E+00  1.05868E+03  6.790E-01  1.542E+01  6.166E-02  1.226E+00
   1    7    7     5     2    1.0205E+01  2.7894E-01   9.9265E+00  0.000E+00  0.000E+00  0.000E+00  1.05417E+03  6.732E-01  1.519E+01  7.594E-02  1.224E+00
   1    8    7     5     3    9.9265E+00  1.9221E-01   9.7343E+00  0.000E+00  0.000E+00  0.000E+00  1.04992E+03  6.676E-01  1.497E+01  5.241E-02  1.223E+00
   1    8    6     5     4    9.7343E+00  1.3577E-01   9.5985E+00  0.000E+00  0.000E+00  0.000E+00  1.04691E+03  6.637E-01  1.482E+01  3.706E-02  1.221E+00
   1    9    6     6     1    2.1889E+01  2.4742E-01   2.1641E+01  0.000E+00  0.000E+00  0.000E+00  1.04385E+03  1.124E+00  1.200E+01  6.000E-02  1.375E+00
   1   10    7     6     2    2.1641E+01  2.4696E-01   2.1394E+01  0.000E+00  0.000E+00  0.000E+00  1.03930E+03  1.116E+00  1.200E+01  6.000E-02  1.372E+00
   1   11    7     6     3    2.1394E+01  2.4650E-01   2.1148E+01  0.000E+00  0.000E+00  0.000E+00  1.03474E+03  1.108E+00  1.200E+01  6.000E-02  1.369E+00
   1   12    7     6     4    2.1148E+01  2.4603E-01   2.0902E+01  0.000E+00  0.000E+00  0.000E+00  1.03019E+03  1.101E+00  1.200E+01  6.000E-02  1.367E+00
   1   13    7     6     5    2.0902E+01 -9.5426E-03   2.0911E+01  0.000E+00  0.000E+00  0.000E+00  1.02701E+03  1.097E+00  1.200E+01  2.400E-01 -1.325E-02
   1   14    9     7     1    1.5000E+02  1.3341E+00   1.4867E+02  0.000E+00  0.000E+00  0.000E+00  1.03987E+03  2.288E+00  5.529E+01  5.593E-01  7.951E-01
   1   13    8     7     2    1.4867E+02  1.8365E+00   1.4683E+02  0.000E+00  0.000E+00  0.000E+00  1.03478E+03  2.279E+00  5.526E+01  6.148E-01  9.958E-01
   1   13    7     7     3    1.4683E+02  1.4766E+00   1.4535E+02  0.000E+00  0.000E+00  0.000E+00  1.02969E+03  2.270E+00  5.522E+01  5.585E-01  8.814E-01
   1   13    6     8     1    1.6626E+02  8.8803E-01   1.6538E+02  0.000E+00  0.000E+00  0.000E+00  1.02480E+03  2.925E+00  4.241E+01  4.322E-01  6.850E-01
   1   13    5     8     2    1.6538E+02  1.3929E-01   1.6524E+02  0.000E+00  0.000E+00  0.000E+00  1.01855E+03  2.921E+00  4.236E+01  4.317E-01  1.076E-01
   1   13    4     8     3    1.6524E+02 -2.4250E+00   1.6766E+02  0.000E+00  0.000E+00  0.000E+00  1.01230E+03  2.929E+00  4.247E+01  4.328E+00 -1.868E-01
   1   13    3     8     4    1.6766E+02 -3.5359E+00   1.7120E+02  0.000E+00  0.000E+00  0.000E+00  1.00607E+03  2.948E+00  4.275E+01  4.357E+00 -2.705E-01
   1   13    2     8     5    1.7120E+02 -2.3623E+00   1.7356E+02  0.000E+00  0.000E+00  0.000E+00  9.99843E+02  2.968E+00  4.303E+01  4.385E+00 -1.796E-01
   1   13    1     8     6    1.7356E+02 -1.8469E+00   1.7541E+02  0.000E+00  0.000E+00  0.000E+00  9.94856E+02  2.981E+00  4.323E+01  2.643E+00 -2.329E-01
   1    8    6     9     1    0.0000E+00  0.0000E+00   0.0000E+00  0.000E+00  0.000E+00  0.000E+00  1.07875E+03  0.000E+00  4.000E+00  0.000E+00  1.000E+00
   1    8    5     9     2    0.0000E+00  0.0000E+00   0.0000E+00  0.000E+00  0.000E+00  0.000E+00  1.07825E+03  0.000E+00  4.000E+00  0.000E+00  1.000E+00



 UBDSV3 SAVING "           GW ET" ON UNIT  61 AT TIME STEP  1, STRESS PERIOD   2
 UBDSV3 SAVING "    UZF RECHARGE" ON UNIT  61 AT TIME STEP  1, STRESS PERIOD   2
 UBDSV3 SAVING " SURFACE LEAKAGE" ON UNIT  61 AT TIME STEP  1, STRESS PERIOD   2
 UBDSV3 SAVING "       HORT+DUNN" ON UNIT  61 AT TIME STEP  1, STRESS PERIOD   2
 UBDSV3 SAVING "  STORAGE CHANGE" ON UNIT  61 AT TIME STEP  1, STRESS PERIOD   2


UNSATURATED ZONE PACKAGE VOLUMETRIC BUDGET FOR  TIME STEP     1 STRESS PERIOD    2
  ------------------------------------------------------------------------------



     CUMULATIVE VOLUMES      L**3       RATES FOR THIS TIME STEP      L**3/T
     ------------------                 ------------------------

           IN:                                      IN:
           ---                                      ---
        INFILTRATION =      459614.8186          INFILTRATION =           4.4075

          OUT:                                     OUT:
          ----                                     ----
              UZF ET =       63558.2764                UZF ET =           0.7250
        UZF RECHARGE =       73224.0000          UZF RECHARGE =       0.0000E+00

            IN - OUT =      322832.5422              IN - OUT =           3.6825

          STORAGE:                                 STORAGE:
          --------                                 --------
      STORAGE CHANGE =      322832.5409        STORAGE CHANGE =           3.6825

 PERCENT DISCREPANCY IS DIFFERENCE BETWEEN IN-OUT MINUS CHANGE IN STORAGE
 DIVIDED BY THE AVERAGE OF IN AND OUT TIMES 100

 PERCENT DISCREPANCY =           0.00     PERCENT DISCREPANCY =           0.00






 

            AG WELLS      PERIOD    2   STEP   1
 AG WELL      1   LAYER   1   ROW     6   COL     4   RATE     0.00000    
 AG WELL      2   LAYER   1   ROW     6   COL     5   RATE     0.00000    
 AG WELL      3   LAYER   1   ROW     7   COL     4   RATE     0.00000    
 AG WELL      4   LAYER   1   ROW     7   COL     5   RATE     0.00000    
 AG WELL      5   LAYER   1   ROW     8   COL     4   RATE     0.00000    
 AG WELL      6   LAYER   1   ROW     8   COL     5   RATE     0.00000    
 
 

   DIVERSION SEGMENTS     PERIOD    2   STEP   1
 
 

        SW IRRIGATION     PERIOD    2   STEP   1
 
 

        GW IRRIGATION     PERIOD    2   STEP   1
 
1
  VOLUMETRIC BUDGET FOR ENTIRE MODEL AT END OF TIME STEP    1, STRESS PERIOD   2
  ------------------------------------------------------------------------------

     CUMULATIVE VOLUMES      L**3       RATES FOR THIS TIME STEP      L**3/T
     ------------------                 ------------------------

           IN:                                      IN:
           ---                                      ---
               AG WELLS  =           0.0000                 AG WELLS  =           0.0000
      DIVERSION SEGMENTS =           0.0000        DIVERSION SEGMENTS =           0.0000
           GW IRRIGATION =           0.0000             GW IRRIGATION =           0.0000
           SW IRRIGATION =           0.0000             SW IRRIGATION =           0.0000
        SYSTEM LOSSES GW =           0.0000          SYSTEM LOSSES GW =           0.0000
        SYSTEM LOSSES SW =           0.0000          SYSTEM LOSSES SW =           0.0000

                TOTAL IN =           0.0000                  TOTAL IN =           0.0000

          OUT:                                     OUT:
          ----                                     ----
               AG WELLS  =           0.0000                 AG WELLS  =           0.0000
      DIVERSION SEGMENTS =           0.0000        DIVERSION SEGMENTS =           0.0000
           GW IRRIGATION =           0.0000             GW IRRIGATION =           0.0000
           SW IRRIGATION =           0.0000             SW IRRIGATION =           0.0000
        SYSTEM LOSSES GW =           0.0000          SYSTEM LOSSES GW =           0.0000
        SYSTEM LOSSES SW =           0.0000          SYSTEM LOSSES SW =           0.0000

               TOTAL OUT =           0.0000                 TOTAL OUT =           0.0000

                IN - OUT =           0.0000                  IN - OUT =           0.0000

     PERCENT DISCREPANCY =           0.00         PERCENT DISCREPANCY =           0.00



1
              HEAD IN LAYER   1 AT END OF TIME STEP   1 IN STRESS PERIOD    2
  ---------------------------------------------------------------------------

           1       2       3       4       5       6       7       8       9      10
 ...................................................................................
   1  1032.36 1031.32 6999.00 6999.00 6999.00 6999.00 6999.00 6999.00 6999.00 6999.00
   2  1031.40 1030.17 1029.57 6999.00 6999.00 1030.67 1030.82 1030.79 6999.00 6999.00
   3  6999.00 1029.27 1028.96 1028.73 1029.27 1029.90 1030.40 1030.36 6999.00 6999.00
   4  1028.56 1028.52 1028.34 1028.16 1028.23 1028.29 1028.78 1029.83 1029.56 6999.00
   5  1028.12 1027.75 1027.58 1027.51 1027.60 1027.81 1027.98 1028.47 1029.09 1029.62
   6  1027.56 1027.01 1026.83 1026.80 1026.92 1027.25 1027.55 1028.07 1028.52 1029.44
   7  1027.07 1026.07 1025.91 1025.95 1026.13 1026.54 1026.97 1027.44 1027.95 6999.00
   8  6999.00 1024.71 1024.74 1024.91 1025.14 1025.64 1026.08 1026.79 1027.35 6999.00
   9  6999.00 1022.69 1023.02 1023.48 1023.87 1024.53 1025.04 1025.79 1026.90 6999.00
  10  6999.00 1019.87 1020.64 1021.68 1022.47 1023.48 1024.39 1025.45 1027.06 1027.71
  11  6999.00 1015.35 1016.78 1019.32 1020.95 1022.68 1024.22 1025.99 1028.18 6999.00
  12  1001.91 1007.94 1012.08 1016.04 1019.32 1022.30 1024.79 1028.19 1031.18 6999.00
  13   995.55 1000.38 1006.89 1012.86 1018.22 1022.74 1027.05 1031.79 1034.63 6999.00
  14  6999.00 1005.79 1008.88 1013.53 1018.29 1022.70 1027.59 1033.07 1037.48 6999.00
  15  6999.00 6999.00 1012.51 1015.23 1018.70 1021.73 6999.00 6999.00 6999.00 6999.00
1
  VOLUMETRIC BUDGET FOR ENTIRE MODEL AT END OF TIME STEP    1, STRESS PERIOD   2
  ------------------------------------------------------------------------------

     CUMULATIVE VOLUMES      L**3       RATES FOR THIS TIME STEP      L**3/T
     ------------------                 ------------------------

           IN:                                      IN:
           ---                                      ---
             STORAGE     =       66714.1328               STORAGE     =           0.7610
       CONSTANT HEAD     =           0.0000         CONSTANT HEAD     =           0.0000
     HEAD DEP BOUNDS     =       49720.8359       HEAD DEP BOUNDS     =           0.2856
      STREAM LEAKAGE     =     1877602.2500        STREAM LEAKAGE     =          11.2728
        UZF RECHARGE     =       73223.9531          UZF RECHARGE     =           0.0000
               GW ET     =           0.0000                 GW ET     =           0.0000
     SURFACE LEAKAGE     =           0.0000       SURFACE LEAKAGE     =           0.0000
           AG WELLS      =           0.0000             AG WELLS      =           0.0000

                TOTAL IN =     2067261.2500                  TOTAL IN =          12.3194

          OUT:                                     OUT:
          ----                                     ----
             STORAGE     =      162443.6875               STORAGE     =           1.8530
       CONSTANT HEAD     =           0.0000         CONSTANT HEAD     =           0.0000
     HEAD DEP BOUNDS     =       49964.8398       HEAD DEP BOUNDS     =           0.2871
      STREAM LEAKAGE     =     1854879.3750        STREAM LEAKAGE     =          10.1797
        UZF RECHARGE     =           0.0000          UZF RECHARGE     =           0.0000
               GW ET     =           0.0000                 GW ET     =           0.0000
     SURFACE LEAKAGE     =           0.0000       SURFACE LEAKAGE     =           0.0000
           AG WELLS      =           0.0000             AG WELLS      =           0.0000

               TOTAL OUT =     2067287.8750                 TOTAL OUT =          12.3197

                IN - OUT =         -26.6250                  IN - OUT =      -3.0518E-04

     PERCENT DISCREPANCY =          -0.00         PERCENT DISCREPANCY =          -0.00






         TIME SUMMARY AT END OF TIME STEP    1 IN STRESS PERIOD    2
                    SECONDS     MINUTES      HOURS       DAYS        YEARS
                    -----------------------------------------------------------
   TIME STEP LENGTH  87667.      1461.1      24.352      1.0147     2.77799E-03
 STRESS PERIOD TIME  87667.      1461.1      24.352      1.0147     2.77799E-03
         TOTAL TIME 1.74067E+05  2901.1      48.352      2.0147     5.51584E-03
1
 
 SOLVING FOR HEAD 
                                                   Max.-Head-Change                         Max.-Flux-Residual
  Residual-Control   Outer-Iter.   Inner-Iter.     Column Row Layer    Maximum-Head-Change  Column Row Layer    Maximum-Flux-Residual          L2-NORM 
          0                 1           2             2   13     1       0.4253722889E-02       4   13    1         0.2411939590E+00      0.5386768057E+00
          0                 2           2             4   13     1      -0.4052344271E-03       4   13    1        -0.2386319226E-01      0.5288936156E-01
          0                 3           1             4   13     1       0.2719703211E-04       4   13    1         0.1646644881E-02      0.3611834018E-02

    ------------------------------------------------
       NWT REQUIRED            3 OUTER ITERATIONS 
       AND A TOTAL OF          5 INNER ITERATIONS.
    ------------------------------------------------

 NO OUTPUT CONTROL FOR STRESS PERIOD    2   TIME STEP    2
 
 SOLVING FOR HEAD 
                                                   Max.-Head-Change                         Max.-Flux-Residual
  Residual-Control   Outer-Iter.   Inner-Iter.     Column Row Layer    Maximum-Head-Change  Column Row Layer    Maximum-Flux-Residual          L2-NORM 
          0                 1           2             2   13     1       0.3942357489E-02       2   13    1         0.2216292543E+00      0.5107468924E+00
          0                 2           2             4   13     1      -0.3679265477E-03       4   13    1        -0.2165389332E-01      0.5019189477E-01
          0                 3           1             4   13     1       0.2467922339E-04       4   13    1         0.1493340113E-02      0.3431832518E-02

    ------------------------------------------------
       NWT REQUIRED            3 OUTER ITERATIONS 
       AND A TOTAL OF          5 INNER ITERATIONS.
    ------------------------------------------------

 NO OUTPUT CONTROL FOR STRESS PERIOD    2   TIME STEP    3
 
 SOLVING FOR HEAD 
                                                   Max.-Head-Change                         Max.-Flux-Residual
  Residual-Control   Outer-Iter.   Inner-Iter.     Column Row Layer    Maximum-Head-Change  Column Row Layer    Maximum-Flux-Residual          L2-NORM 
          0                 1           2             2   13     1       0.3654047438E-02       2   13    1         0.2053988806E+00      0.4855996864E+00
          0                 2           2             2   13     1      -0.3403260315E-03       2   13    1        -0.1966485110E-01      0.4776337132E-01
          0                 3           1             4   13     1       0.2234835022E-04       4   13    1         0.1351458061E-02      0.3269292075E-02

    ------------------------------------------------
       NWT REQUIRED            3 OUTER ITERATIONS 
       AND A TOTAL OF          5 INNER ITERATIONS.
    ------------------------------------------------

 NO OUTPUT CONTROL FOR STRESS PERIOD    2   TIME STEP    4
 
 SOLVING FOR HEAD 
                                                   Max.-Head-Change                         Max.-Flux-Residual
  Residual-Control   Outer-Iter.   Inner-Iter.     Column Row Layer    Maximum-Head-Change  Column Row Layer    Maximum-Flux-Residual          L2-NORM 
          0                 1           2             2   13     1       0.3387054607E-02       2   13    1         0.1903695165E+00      0.4629639770E+00
          0                 2           2             2   13     1      -0.3155517039E-03       2   13    1        -0.1823119845E-01      0.4558133967E-01
          0                 3           1             2    2     1       0.2094442769E-04       4   13    1         0.1230990389E-02      0.3124500338E-02

    ------------------------------------------------
       NWT REQUIRED            3 OUTER ITERATIONS 
       AND A TOTAL OF          5 INNER ITERATIONS.
    ------------------------------------------------

 NO OUTPUT CONTROL FOR STRESS PERIOD    2   TIME STEP    5
 
 SOLVING FOR HEAD 
                                                   Max.-Head-Change                         Max.-Flux-Residual
  Residual-Control   Outer-Iter.   Inner-Iter.     Column Row Layer    Maximum-Head-Change  Column Row Layer    Maximum-Flux-Residual          L2-NORM 
          0                 1           2             2   13     1       0.3139895837E-02       2   13    1         0.1764576568E+00      0.4425932962E+00
          0                 2           2             2    2     1      -0.3052178596E-03       2   13    1        -0.1690323865E-01      0.4361590338E-01
          0                 3           1             2    2     1       0.2078420036E-04       2    2    1         0.1148339133E-02      0.2993595348E-02

    ------------------------------------------------
       NWT REQUIRED            3 OUTER ITERATIONS 
       AND A TOTAL OF          5 INNER ITERATIONS.
    ------------------------------------------------

 NO OUTPUT CONTROL FOR STRESS PERIOD    2   TIME STEP    6
 
 SOLVING FOR HEAD 
                                                   Max.-Head-Change                         Max.-Flux-Residual
  Residual-Control   Outer-Iter.   Inner-Iter.     Column Row Layer    Maximum-Head-Change  Column Row Layer    Maximum-Flux-Residual          L2-NORM 
          0                 1           2             2    2     1       0.3113911396E-02       2   13    1         0.1635768632E+00      0.4242599540E+00
          0                 2           2             2    2     1      -0.3028990919E-03       2    2    1        -0.1627941886E-01      0.4184987508E-01
          0                 3           1             2    2     1       0.2062630118E-04       2    2    1         0.1139559554E-02      0.2875903307E-02

    ------------------------------------------------
       NWT REQUIRED            3 OUTER ITERATIONS 
       AND A TOTAL OF          5 INNER ITERATIONS.
    ------------------------------------------------

 NO OUTPUT CONTROL FOR STRESS PERIOD    2   TIME STEP    7
 
 SOLVING FOR HEAD 
                                                   Max.-Head-Change                         Max.-Flux-Residual
  Residual-Control   Outer-Iter.   Inner-Iter.     Column Row Layer    Maximum-Head-Change  Column Row Layer    Maximum-Flux-Residual          L2-NORM 
          0                 1           2             2    2     1       0.3090506787E-02       2    2    1         0.1615624772E+00      0.4077576521E+00
          0                 2           2             2    2     1      -0.3006224524E-03       2    2    1        -0.1615627543E-01      0.4026056950E-01
          0                 3           1             2    2     1       0.2047127025E-04       2    2    1         0.1130939491E-02      0.2770875395E-02

    ------------------------------------------------
       NWT REQUIRED            3 OUTER ITERATIONS 
       AND A TOTAL OF          5 INNER ITERATIONS.
    ------------------------------------------------

 NO OUTPUT CONTROL FOR STRESS PERIOD    2   TIME STEP    8
 
 SOLVING FOR HEAD 
                                                   Max.-Head-Change                         Max.-Flux-Residual
  Residual-Control   Outer-Iter.   Inner-Iter.     Column Row Layer    Maximum-Head-Change  Column Row Layer    Maximum-Flux-Residual          L2-NORM 
          0                 1           2             2    2     1       0.3067355881E-02       2    2    1         0.1603444407E+00      0.3928923867E+00
          0                 2           2             2    2     1      -0.2983704919E-03       2    2    1        -0.1603447119E-01      0.3882861011E-01
          0                 3           1             2    2     1       0.2031792040E-04       2    2    1         0.1122413213E-02      0.2675714388E-02

    ------------------------------------------------
       NWT REQUIRED            3 OUTER ITERATIONS 
       AND A TOTAL OF          5 INNER ITERATIONS.
    ------------------------------------------------

 NO OUTPUT CONTROL FOR STRESS PERIOD    2   TIME STEP    9
 
 SOLVING FOR HEAD 
                                                   Max.-Head-Change                         Max.-Flux-Residual
  Residual-Control   Outer-Iter.   Inner-Iter.     Column Row Layer    Maximum-Head-Change  Column Row Layer    Maximum-Flux-Residual          L2-NORM 
          0                 1           2             2    2     1       0.3044540447E-02       2    2    1         0.1591440902E+00      0.3794934267E+00
          0                 2           2             2    2     1      -0.2961511642E-03       2    2    1        -0.1591443560E-01      0.3753859685E-01
          0                 3           1             2    2     1       0.2016679269E-04       2    2    1         0.1114010728E-02      0.2589401806E-02

    ------------------------------------------------
       NWT REQUIRED            3 OUTER ITERATIONS 
       AND A TOTAL OF          5 INNER ITERATIONS.
    ------------------------------------------------

 NO OUTPUT CONTROL FOR STRESS PERIOD    2   TIME STEP   10
 
 SOLVING FOR HEAD 
                                                   Max.-Head-Change                         Max.-Flux-Residual
  Residual-Control   Outer-Iter.   Inner-Iter.     Column Row Layer    Maximum-Head-Change  Column Row Layer    Maximum-Flux-Residual          L2-NORM 
          0                 1           2             2    2     1       0.3021968322E-02       2    2    1         0.1579566016E+00      0.3674079745E+00
          0                 2           2             2    2     1      -0.2939555038E-03       2    2    1        -0.1579568620E-01      0.3637406546E-01
          0                 3           1             2    2     1       0.2001727624E-04       2    2    1         0.1105698259E-02      0.2512112711E-02

    ------------------------------------------------
       NWT REQUIRED            3 OUTER ITERATIONS 
       AND A TOTAL OF          5 INNER ITERATIONS.
    ------------------------------------------------

 NO OUTPUT CONTROL FOR STRESS PERIOD    2   TIME STEP   11
 
 SOLVING FOR HEAD 
                                                   Max.-Head-Change                         Max.-Flux-Residual
  Residual-Control   Outer-Iter.   Inner-Iter.     Column Row Layer    Maximum-Head-Change  Column Row Layer    Maximum-Flux-Residual          L2-NORM 
          0                 1           2             2    2     1       0.2999805849E-02       2    2    1         0.1567906696E+00      0.3564900372E+00
          0                 2           2             2    2     1      -0.2917996919E-03       2    2    1        -0.1567909250E-01      0.3532304520E-01
          0                 3           1             2    2     1       0.1987047349E-04       2    2    1         0.1097536705E-02      0.2442933442E-02

    ------------------------------------------------
       NWT REQUIRED            3 OUTER ITERATIONS 
       AND A TOTAL OF          5 INNER ITERATIONS.
    ------------------------------------------------

 NO OUTPUT CONTROL FOR STRESS PERIOD    2   TIME STEP   12
 
 SOLVING FOR HEAD 
                                                   Max.-Head-Change                         Max.-Flux-Residual
  Residual-Control   Outer-Iter.   Inner-Iter.     Column Row Layer    Maximum-Head-Change  Column Row Layer    Maximum-Flux-Residual          L2-NORM 
          0                 1           2             2    2     1       0.2977879065E-02       2    2    1         0.1556371588E+00      0.3466171392E+00
          0                 2           2             2    2     1      -0.2896668064E-03       2    2    1        -0.1556374091E-01      0.3437135013E-01
          0                 3           1             2    2     1       0.1972523207E-04       2    2    1         0.1089462110E-02      0.2379658890E-02

    ------------------------------------------------
       NWT REQUIRED            3 OUTER ITERATIONS 
       AND A TOTAL OF          5 INNER ITERATIONS.
    ------------------------------------------------

 NO OUTPUT CONTROL FOR STRESS PERIOD    2   TIME STEP   13
 
 SOLVING FOR HEAD 
                                                   Max.-Head-Change                         Max.-Flux-Residual
  Residual-Control   Outer-Iter.   Inner-Iter.     Column Row Layer    Maximum-Head-Change  Column Row Layer    Maximum-Flux-Residual          L2-NORM 
          0                 1           2             2    2     1       0.2956267412E-02       2    2    1         0.1545002777E+00      0.3376789233E+00
          0                 2           2             2    2     1      -0.2875645741E-03       2    2    1        -0.1545005230E-01      0.3351013311E-01
          0                 3           1             2    2     1       0.1958207788E-04       2    2    1         0.1081503903E-02      0.2321725239E-02

    ------------------------------------------------
       NWT REQUIRED            3 OUTER ITERATIONS 
       AND A TOTAL OF          5 INNER ITERATIONS.
    ------------------------------------------------

 NO OUTPUT CONTROL FOR STRESS PERIOD    2   TIME STEP   14
 
 SOLVING FOR HEAD 
                                                   Max.-Head-Change                         Max.-Flux-Residual
  Residual-Control   Outer-Iter.   Inner-Iter.     Column Row Layer    Maximum-Head-Change  Column Row Layer    Maximum-Flux-Residual          L2-NORM 
          0                 1           2             2    2     1       0.2934966104E-02       2    2    1         0.1533797358E+00      0.3295651024E+00
          0                 2           2             2    2     1      -0.2854925300E-03       2    2    1        -0.1533799761E-01      0.3272676266E-01
          0                 3           1             2    2     1       0.1944097943E-04       2    2    1         0.1073660073E-02      0.2269031137E-02

    ------------------------------------------------
       NWT REQUIRED            3 OUTER ITERATIONS 
       AND A TOTAL OF          5 INNER ITERATIONS.
    ------------------------------------------------

 NO OUTPUT CONTROL FOR STRESS PERIOD    2   TIME STEP   15
 
 SOLVING FOR HEAD 
                                                   Max.-Head-Change                         Max.-Flux-Residual
  Residual-Control   Outer-Iter.   Inner-Iter.     Column Row Layer    Maximum-Head-Change  Column Row Layer    Maximum-Flux-Residual          L2-NORM 
          0                 1           2             2    2     1       0.2913970072E-02       2    2    1         0.1522752850E+00      0.3221839070E+00
          0                 2           2             2    2     1      -0.2834501817E-03       2    2    1        -0.1522755207E-01      0.3201418974E-01
          0                 3           1             2    2     1       0.1930190311E-04       2    2    1         0.1065928881E-02      0.2221998728E-02

    ------------------------------------------------
       NWT REQUIRED            3 OUTER ITERATIONS 
       AND A TOTAL OF          5 INNER ITERATIONS.
    ------------------------------------------------

 NO OUTPUT CONTROL FOR STRESS PERIOD    2   TIME STEP   16
 
 SOLVING FOR HEAD 
                                                   Max.-Head-Change                         Max.-Flux-Residual
  Residual-Control   Outer-Iter.   Inner-Iter.     Column Row Layer    Maximum-Head-Change  Column Row Layer    Maximum-Flux-Residual          L2-NORM 
          0                 1           2             2    2     1       0.2893274335E-02       2    2    1         0.1511866624E+00      0.3154597554E+00
          0                 2           2             2    2     1      -0.2814370436E-03       2    2    1        -0.1511868935E-01      0.3136467513E-01
          0                 3           1             2    2     1       0.1916481580E-04       2    2    1         0.1058308480E-02      0.2179962297E-02

    ------------------------------------------------
       NWT REQUIRED            3 OUTER ITERATIONS 
       AND A TOTAL OF          5 INNER ITERATIONS.
    ------------------------------------------------

 NO OUTPUT CONTROL FOR STRESS PERIOD    2   TIME STEP   17
 
 SOLVING FOR HEAD 
                                                   Max.-Head-Change                         Max.-Flux-Residual
  Residual-Control   Outer-Iter.   Inner-Iter.     Column Row Layer    Maximum-Head-Change  Column Row Layer    Maximum-Flux-Residual          L2-NORM 
          0                 1           2             2    2     1       0.2872787288E-02       2    2    1         0.1501090770E+00      0.3093199449E+00
          0                 2           2             2    2     1      -0.2794442064E-03       2    2    1        -0.1501093038E-01      0.3077061074E-01
          0                 3           1             2    2     1       0.1902911113E-04       2    2    1         0.1050765367E-02      0.2138847782E-02

    ------------------------------------------------
       NWT REQUIRED            3 OUTER ITERATIONS 
       AND A TOTAL OF          5 INNER ITERATIONS.
    ------------------------------------------------

 NO OUTPUT CONTROL FOR STRESS PERIOD    2   TIME STEP   18
 
 SOLVING FOR HEAD 
                                                   Max.-Head-Change                         Max.-Flux-Residual
  Residual-Control   Outer-Iter.   Inner-Iter.     Column Row Layer    Maximum-Head-Change  Column Row Layer    Maximum-Flux-Residual          L2-NORM 
          0                 1           2             2    2     1       0.2852678639E-02       2    2    1         0.1490513775E+00      0.3037000372E+00
          0                 2           2             2    2     1      -0.2774881763E-03       2    2    1        -0.1490515998E-01      0.3022673945E-01
          0                 3           1             2    2     1       0.1889591284E-04       2    2    1         0.1043361444E-02      0.2102460893E-02

    ------------------------------------------------
       NWT REQUIRED            3 OUTER ITERATIONS 
       AND A TOTAL OF          5 INNER ITERATIONS.
    ------------------------------------------------

 NO OUTPUT CONTROL FOR STRESS PERIOD    2   TIME STEP   19
 
 SOLVING FOR HEAD 
                                                   Max.-Head-Change                         Max.-Flux-Residual
  Residual-Control   Outer-Iter.   Inner-Iter.     Column Row Layer    Maximum-Head-Change  Column Row Layer    Maximum-Flux-Residual          L2-NORM 
          0                 1           2             2    2     1       0.2832769497E-02       2    2    1         0.1480042319E+00      0.2985375034E+00
          0                 2           2             2    2     1      -0.2755515534E-03       2    2    1        -0.1480044500E-01      0.2972663399E-01
          0                 3           1             2    2     1       0.1876403612E-04       2    2    1         0.1036031393E-02      0.2069534938E-02

    ------------------------------------------------
       NWT REQUIRED            3 OUTER ITERATIONS 
       AND A TOTAL OF          5 INNER ITERATIONS.
    ------------------------------------------------

 NO OUTPUT CONTROL FOR STRESS PERIOD    2   TIME STEP   20
 
 SOLVING FOR HEAD 
                                                   Max.-Head-Change                         Max.-Flux-Residual
  Residual-Control   Outer-Iter.   Inner-Iter.     Column Row Layer    Maximum-Head-Change  Column Row Layer    Maximum-Flux-Residual          L2-NORM 
          0                 1           2             2    2     1       0.2813142646E-02       2    2    1         0.1469719634E+00      0.2937864863E+00
          0                 2           2             2    2     1      -0.2736423890E-03       2    2    1        -0.1469721771E-01      0.2926603996E-01
          0                 3           1             2    2     1       0.1863402865E-04       2    2    1         0.1028805462E-02      0.2038683239E-02

    ------------------------------------------------
       NWT REQUIRED            3 OUTER ITERATIONS 
       AND A TOTAL OF          5 INNER ITERATIONS.
    ------------------------------------------------

 NO OUTPUT CONTROL FOR STRESS PERIOD    2   TIME STEP   21
 
 SOLVING FOR HEAD 
                                                   Max.-Head-Change                         Max.-Flux-Residual
  Residual-Control   Outer-Iter.   Inner-Iter.     Column Row Layer    Maximum-Head-Change  Column Row Layer    Maximum-Flux-Residual          L2-NORM 
          0                 1           2             2    2     1       0.2793793863E-02       2    2    1         0.1459543314E+00      0.2893969344E+00
          0                 2           2             2    2     1      -0.2717602745E-03       2    2    1        -0.1459545411E-01      0.2883929793E-01
          0                 3           1             2    2     1       0.1850586369E-04       2    2    1         0.1021682031E-02      0.2009481798E-02

    ------------------------------------------------
       NWT REQUIRED            3 OUTER ITERATIONS 
       AND A TOTAL OF          5 INNER ITERATIONS.
    ------------------------------------------------

 NO OUTPUT CONTROL FOR STRESS PERIOD    2   TIME STEP   22
 
 SOLVING FOR HEAD 
                                                   Max.-Head-Change                         Max.-Flux-Residual
  Residual-Control   Outer-Iter.   Inner-Iter.     Column Row Layer    Maximum-Head-Change  Column Row Layer    Maximum-Flux-Residual          L2-NORM 
          0                 1           2             2    2     1       0.2774718639E-02       2    2    1         0.1449511169E+00      0.2853373749E+00
          0                 2           2             2    2     1      -0.2699047697E-03       2    2    1        -0.1449513227E-01      0.2844402705E-01
          0                 3           1             2    2     1       0.1837951140E-04       2    2    1         0.1014659521E-02      0.1982656045E-02

    ------------------------------------------------
       NWT REQUIRED            3 OUTER ITERATIONS 
       AND A TOTAL OF          5 INNER ITERATIONS.
    ------------------------------------------------

 NO OUTPUT CONTROL FOR STRESS PERIOD    2   TIME STEP   23
 
 SOLVING FOR HEAD 
                                                   Max.-Head-Change                         Max.-Flux-Residual
  Residual-Control   Outer-Iter.   Inner-Iter.     Column Row Layer    Maximum-Head-Change  Column Row Layer    Maximum-Flux-Residual          L2-NORM 
          0                 1           2             2    2     1       0.2755917264E-02       2    2    1         0.1439623316E+00      0.2815713689E+00
          0                 2           2             2    2     1      -0.2680759024E-03       2    2    1        -0.1439625335E-01      0.2807728605E-01
          0                 3           1             2    2     1       0.1825497227E-04       2    2    1         0.1007737985E-02      0.1957813104E-02

    ------------------------------------------------
       NWT REQUIRED            3 OUTER ITERATIONS 
       AND A TOTAL OF          5 INNER ITERATIONS.
    ------------------------------------------------

 NO OUTPUT CONTROL FOR STRESS PERIOD    2   TIME STEP   24
 
 SOLVING FOR HEAD 
                                                   Max.-Head-Change                         Max.-Flux-Residual
  Residual-Control   Outer-Iter.   Inner-Iter.     Column Row Layer    Maximum-Head-Change  Column Row Layer    Maximum-Flux-Residual          L2-NORM 
          0                 1           2             2    2     1       0.2737289612E-02       2    2    1         0.1429827207E+00      0.2780651962E+00
          0                 2           2             2    2     1      -0.2662639341E-03       2    2    1        -0.1429829190E-01      0.2773550704E-01
          0                 3           1             2    2     1       0.1813158384E-04       2    2    1         0.1000880679E-02      0.1935013939E-02

    ------------------------------------------------
       NWT REQUIRED            3 OUTER ITERATIONS 
       AND A TOTAL OF          5 INNER ITERATIONS.
    ------------------------------------------------

 NO OUTPUT CONTROL FOR STRESS PERIOD    2   TIME STEP   25
 
 SOLVING FOR HEAD 
                                                   Max.-Head-Change                         Max.-Flux-Residual
  Residual-Control   Outer-Iter.   Inner-Iter.     Column Row Layer    Maximum-Head-Change  Column Row Layer    Maximum-Flux-Residual          L2-NORM 
          0                 1           2             2    2     1       0.2718923145E-02       2    2    1         0.1420168960E+00      0.2747868715E+00
          0                 2           2             2    2     1      -0.2644773722E-03       2    2    1        -0.1420170906E-01      0.2741551618E-01
          0                 3           1             2    2     1       0.1800992573E-04       2    2    1         0.9941198757E-03      0.1913193666E-02

    ------------------------------------------------
       NWT REQUIRED            3 OUTER ITERATIONS 
       AND A TOTAL OF          5 INNER ITERATIONS.
    ------------------------------------------------

 NO OUTPUT CONTROL FOR STRESS PERIOD    2   TIME STEP   26
 
 SOLVING FOR HEAD 
                                                   Max.-Head-Change                         Max.-Flux-Residual
  Residual-Control   Outer-Iter.   Inner-Iter.     Column Row Layer    Maximum-Head-Change  Column Row Layer    Maximum-Flux-Residual          L2-NORM 
          0                 1           2             2    2     1       0.2700900794E-02       2    2    1         0.1410691471E+00      0.2717273732E+00
          0                 2           2             2    2     1      -0.2627242833E-03       2    2    1        -0.1410693380E-01      0.2711592622E-01
          0                 3           1             2    2     1       0.1789054679E-04       2    2    1         0.9874855978E-03      0.1892613958E-02

    ------------------------------------------------
       NWT REQUIRED            3 OUTER ITERATIONS 
       AND A TOTAL OF          5 INNER ITERATIONS.
    ------------------------------------------------

 NO OUTPUT CONTROL FOR STRESS PERIOD    2   TIME STEP   27
 
 SOLVING FOR HEAD 
                                                   Max.-Head-Change                         Max.-Flux-Residual
  Residual-Control   Outer-Iter.   Inner-Iter.     Column Row Layer    Maximum-Head-Change  Column Row Layer    Maximum-Flux-Residual          L2-NORM 
          0                 1           2             2    2     1       0.2683044245E-02       2    2    1         0.1401301731E+00      0.2688480792E+00
          0                 2           2             2    2     1      -0.2609873230E-03       2    2    1        -0.1401303607E-01      0.2683432031E-01
          0                 3           1             2    2     1       0.1777226624E-04       2    2    1         0.9809127648E-03      0.1873622262E-02

    ------------------------------------------------
       NWT REQUIRED            3 OUTER ITERATIONS 
       AND A TOTAL OF          5 INNER ITERATIONS.
    ------------------------------------------------

 NO OUTPUT CONTROL FOR STRESS PERIOD    2   TIME STEP   28
 
 SOLVING FOR HEAD 
                                                   Max.-Head-Change                         Max.-Flux-Residual
  Residual-Control   Outer-Iter.   Inner-Iter.     Column Row Layer    Maximum-Head-Change  Column Row Layer    Maximum-Flux-Residual          L2-NORM 
          0                 1           2             2    2     1       0.2665436832E-02       2    2    1         0.1392043293E+00      0.2661428176E+00
          0                 2           2             2    2     1      -0.2592745966E-03       2    2    1        -0.1392045133E-01      0.2656926099E-01
          0                 3           1             2    2     1       0.1765563602E-04       2    2    1         0.9744318410E-03      0.1855780047E-02

    ------------------------------------------------
       NWT REQUIRED            3 OUTER ITERATIONS 
       AND A TOTAL OF          5 INNER ITERATIONS.
    ------------------------------------------------

 NO OUTPUT CONTROL FOR STRESS PERIOD    2   TIME STEP   29
 
 SOLVING FOR HEAD 
                                                   Max.-Head-Change                         Max.-Flux-Residual
  Residual-Control   Outer-Iter.   Inner-Iter.     Column Row Layer    Maximum-Head-Change  Column Row Layer    Maximum-Flux-Residual          L2-NORM 
          0                 1           2             2    2     1       0.2648074554E-02       2    2    1         0.1382914029E+00      0.2635908032E+00
          0                 2           2             2    2     1      -0.2575857150E-03       2    2    1        -0.1382915835E-01      0.2631869279E-01
          0                 3           1             2    2     1       0.1754062938E-04       2    2    1         0.9680413173E-03      0.1838437088E-02

    ------------------------------------------------
       NWT REQUIRED            3 OUTER ITERATIONS 
       AND A TOTAL OF          5 INNER ITERATIONS.
    ------------------------------------------------

 NO OUTPUT CONTROL FOR STRESS PERIOD    2   TIME STEP   30



 STREAM LISTING     PERIOD      2   STEP       30

 LAYER ROW COL. STREAM  RCH.  FLOW INTO     FLOW TO   FLOW OUT OF   OVRLND.     DIRECT     STREAM       STREAM     STREAM     STREAM   STREAMBED  STREAMBED
                SEG.NO.  NO.  STRM. RCH.    AQUIFER    STRM. RCH.    RUNOFF     PRECIP       ET          HEAD       DEPTH      WIDTH   CONDCTNC.   GRADIENT

   1    1    1     1     1    1.6500E+01  1.9759E-01   1.6302E+01  0.000E+00  0.000E+00  0.000E+00  1.09409E+03  1.039E+00  1.087E+01  4.893E-02  1.346E+00
   1    2    2     1     2    1.6302E+01  3.0466E-01   1.5998E+01  0.000E+00  0.000E+00  0.000E+00  1.08909E+03  1.034E+00  1.079E+01  7.552E-02  1.345E+00
   1    3    3     1     3    1.5998E+01  2.5853E-01   1.5739E+01  0.000E+00  0.000E+00  0.000E+00  1.08345E+03  1.029E+00  1.070E+01  6.417E-02  1.343E+00
   1    3    4     1     4    1.5739E+01  2.3700E-01   1.5502E+01  0.000E+00  0.000E+00  0.000E+00  1.07843E+03  1.024E+00  1.061E+01  5.889E-02  1.341E+00
   1    4    5     2     1    1.3502E+01  2.9865E-01   1.3204E+01  0.000E+00  0.000E+00  0.000E+00  1.07276E+03  8.289E-01  1.200E+01  7.800E-02  1.276E+00
   1    5    6     2     2    1.3204E+01  2.2914E-01   1.2974E+01  0.000E+00  0.000E+00  0.000E+00  1.06733E+03  8.190E-01  1.200E+01  6.000E-02  1.273E+00
   1    6    6     2     3    1.2974E+01  2.2862E-01   1.2746E+01  0.000E+00  0.000E+00  0.000E+00  1.06260E+03  8.104E-01  1.200E+01  6.000E-02  1.270E+00
   1    7    6     2     4    1.2746E+01  2.2810E-01   1.2518E+01  0.000E+00  0.000E+00  0.000E+00  1.05788E+03  8.017E-01  1.200E+01  6.000E-02  1.267E+00
   1    8    6     2     5    1.2518E+01  2.2758E-01   1.2290E+01  0.000E+00  0.000E+00  0.000E+00  1.05315E+03  7.930E-01  1.200E+01  6.000E-02  1.264E+00
   1    3    5     3     1    2.0000E+00  2.8252E-01   1.7175E+00  0.000E+00  0.000E+00  0.000E+00  1.07555E+03  1.909E+00  9.636E+00  7.227E-02  1.955E+00
   1    3    6     3     2    1.7175E+00  2.4905E-01   1.4684E+00  0.000E+00  0.000E+00  0.000E+00  1.07264E+03  1.727E+00  8.909E+00  6.682E-02  1.864E+00
   1    3    7     3     3    1.4684E+00  1.9718E-01   1.2712E+00  0.000E+00  0.000E+00  0.000E+00  1.06987E+03  1.555E+00  8.218E+00  5.547E-02  1.777E+00
   1    4    8     3     4    1.2712E+00  2.2567E-01   1.0456E+00  0.000E+00  0.000E+00  0.000E+00  1.06682E+03  1.364E+00  7.455E+00  6.709E-02  1.682E+00
   1    5    8     3     5    1.0456E+00  1.5790E-01   8.8768E-01  0.000E+00  0.000E+00  0.000E+00  1.06362E+03  1.164E+00  6.655E+00  4.991E-02  1.582E+00
   1    6    8     3     6    8.8768E-01  5.5980E-02   8.3170E-01  0.000E+00  0.000E+00  0.000E+00  1.06158E+03  1.036E+00  6.145E+00  1.844E-02  1.518E+00
   1    5   10     4     1    1.0000E+01  9.0919E-02   9.9091E+00  0.000E+00  0.000E+00  0.000E+00  1.07836E+03  6.368E-01  1.000E+01  2.500E-02  1.212E+00
   1    5    9     4     2    9.9091E+00  1.8158E-01   9.7275E+00  0.000E+00  0.000E+00  0.000E+00  1.07154E+03  6.315E-01  1.000E+01  5.000E-02  1.211E+00
   1    6    8     4     3    9.7275E+00  1.2689E-01   9.6006E+00  0.000E+00  0.000E+00  0.000E+00  1.06381E+03  6.256E-01  1.000E+01  3.500E-02  1.209E+00
   1    6    8     5     1    1.0432E+01  2.2686E-01   1.0205E+01  0.000E+00  0.000E+00  0.000E+00  1.05868E+03  6.790E-01  1.542E+01  6.166E-02  1.226E+00
   1    7    7     5     2    1.0205E+01  2.7894E-01   9.9265E+00  0.000E+00  0.000E+00  0.000E+00  1.05417E+03  6.732E-01  1.519E+01  7.594E-02  1.224E+00
   1    8    7     5     3    9.9265E+00  1.9221E-01   9.7343E+00  0.000E+00  0.000E+00  0.000E+00  1.04992E+03  6.676E-01  1.497E+01  5.241E-02  1.223E+00
   1    8    6     5     4    9.7343E+00  1.3577E-01   9.5985E+00  0.000E+00  0.000E+00  0.000E+00  1.04691E+03  6.637E-01  1.482E+01  3.706E-02  1.221E+00
   1    9    6     6     1    2.1889E+01  2.4742E-01   2.1641E+01  0.000E+00  0.000E+00  0.000E+00  1.04385E+03  1.124E+00  1.200E+01  6.000E-02  1.375E+00
   1   10    7     6     2    2.1641E+01  2.4696E-01   2.1394E+01  0.000E+00  0.000E+00  0.000E+00  1.03930E+03  1.116E+00  1.200E+01  6.000E-02  1.372E+00
   1   11    7     6     3    2.1394E+01  2.4650E-01   2.1148E+01  0.000E+00  0.000E+00  0.000E+00  1.03474E+03  1.108E+00  1.200E+01  6.000E-02  1.369E+00
   1   12    7     6     4    2.1148E+01  2.4603E-01   2.0902E+01  0.000E+00  0.000E+00  0.000E+00  1.03019E+03  1.101E+00  1.200E+01  6.000E-02  1.367E+00
   1   13    7     6     5    2.0902E+01 -1.7036E-02   2.0919E+01  0.000E+00  0.000E+00  0.000E+00  1.02701E+03  1.097E+00  1.200E+01  2.400E-01 -2.366E-02
   1   14    9     7     1    1.5000E+02  1.3348E+00   1.4867E+02  0.000E+00  0.000E+00  0.000E+00  1.03987E+03  2.288E+00  5.529E+01  5.593E-01  7.955E-01
   1   13    8     7     2    1.4867E+02  1.8350E+00   1.4683E+02  0.000E+00  0.000E+00  0.000E+00  1.03478E+03  2.279E+00  5.526E+01  6.148E-01  9.949E-01
   1   13    7     7     3    1.4683E+02  1.4591E+00   1.4537E+02  0.000E+00  0.000E+00  0.000E+00  1.02969E+03  2.271E+00  5.522E+01  5.585E-01  8.709E-01
   1   13    6     8     1    1.6629E+02  8.7924E-01   1.6541E+02  0.000E+00  0.000E+00  0.000E+00  1.02480E+03  2.925E+00  4.241E+01  4.322E-01  6.781E-01
   1   13    5     8     2    1.6541E+02  1.3143E-01   1.6528E+02  0.000E+00  0.000E+00  0.000E+00  1.01855E+03  2.922E+00  4.236E+01  4.317E-01  1.015E-01
   1   13    4     8     3    1.6528E+02 -2.5986E+00   1.6788E+02  0.000E+00  0.000E+00  0.000E+00  1.01230E+03  2.930E+00  4.248E+01  4.329E+00 -2.001E-01
   1   13    3     8     4    1.6788E+02 -3.7056E+00   1.7158E+02  0.000E+00  0.000E+00  0.000E+00  1.00608E+03  2.950E+00  4.278E+01  4.360E+00 -2.833E-01
   1   13    2     8     5    1.7158E+02 -2.5597E+00   1.7414E+02  0.000E+00  0.000E+00  0.000E+00  9.99846E+02  2.971E+00  4.308E+01  4.390E+00 -1.944E-01
   1   13    1     8     6    1.7414E+02 -1.9428E+00   1.7609E+02  0.000E+00  0.000E+00  0.000E+00  9.94860E+02  2.985E+00  4.329E+01  2.647E+00 -2.447E-01
   1    8    6     9     1    0.0000E+00  0.0000E+00   0.0000E+00  0.000E+00  0.000E+00  0.000E+00  1.07875E+03  0.000E+00  4.000E+00  0.000E+00  1.000E+00
   1    8    5     9     2    0.0000E+00  0.0000E+00   0.0000E+00  0.000E+00  0.000E+00  0.000E+00  1.07825E+03  0.000E+00  4.000E+00  0.000E+00  1.000E+00





UNSATURATED ZONE PACKAGE VOLUMETRIC BUDGET FOR  TIME STEP    30 STRESS PERIOD    2
  ------------------------------------------------------------------------------



     CUMULATIVE VOLUMES      L**3       RATES FOR THIS TIME STEP      L**3/T
     ------------------                 ------------------------

           IN:                                      IN:
           ---                                      ---
        INFILTRATION =    11664948.5581          INFILTRATION =           4.4075

          OUT:                                     OUT:
          ----                                     ----
              UZF ET =     1906749.7350                UZF ET =           0.7250
        UZF RECHARGE =       73224.0000          UZF RECHARGE =       0.0000E+00

            IN - OUT =     9684974.8231              IN - OUT =           3.6825

          STORAGE:                                 STORAGE:
          --------                                 --------
      STORAGE CHANGE =     9684974.7651        STORAGE CHANGE =           3.6825

 PERCENT DISCREPANCY IS DIFFERENCE BETWEEN IN-OUT MINUS CHANGE IN STORAGE
 DIVIDED BY THE AVERAGE OF IN AND OUT TIMES 100

 PERCENT DISCREPANCY =           0.00     PERCENT DISCREPANCY =           0.00






1
  VOLUMETRIC BUDGET FOR ENTIRE MODEL AT END OF TIME STEP   30, STRESS PERIOD   2
  ------------------------------------------------------------------------------

     CUMULATIVE VOLUMES      L**3       RATES FOR THIS TIME STEP      L**3/T
     ------------------                 ------------------------

           IN:                                      IN:
           ---                                      ---
               AG WELLS  =           0.0000                 AG WELLS  =           0.0000
      DIVERSION SEGMENTS =           0.0000        DIVERSION SEGMENTS =           0.0000
           GW IRRIGATION =           0.0000             GW IRRIGATION =           0.0000
           SW IRRIGATION =           0.0000             SW IRRIGATION =           0.0000
        SYSTEM LOSSES GW =           0.0000          SYSTEM LOSSES GW =           0.0000
        SYSTEM LOSSES SW =           0.0000          SYSTEM LOSSES SW =           0.0000

                TOTAL IN =           0.0000                  TOTAL IN =           0.0000

          OUT:                                     OUT:
          ----                                     ----
               AG WELLS  =           0.0000                 AG WELLS  =           0.0000
      DIVERSION SEGMENTS =           0.0000        DIVERSION SEGMENTS =           0.0000
           GW IRRIGATION =           0.0000             GW IRRIGATION =           0.0000
           SW IRRIGATION =           0.0000             SW IRRIGATION =           0.0000
        SYSTEM LOSSES GW =           0.0000          SYSTEM LOSSES GW =           0.0000
        SYSTEM LOSSES SW =           0.0000          SYSTEM LOSSES SW =           0.0000

               TOTAL OUT =           0.0000                 TOTAL OUT =           0.0000

                IN - OUT =           0.0000                  IN - OUT =           0.0000

     PERCENT DISCREPANCY =           0.00         PERCENT DISCREPANCY =           0.00



1
  VOLUMETRIC BUDGET FOR ENTIRE MODEL AT END OF TIME STEP   30, STRESS PERIOD   2
  ------------------------------------------------------------------------------

     CUMULATIVE VOLUMES      L**3       RATES FOR THIS TIME STEP      L**3/T
     ------------------                 ------------------------

           IN:                                      IN:
           ---                                      ---
             STORAGE     =     1715140.7500               STORAGE     =           0.5909
       CONSTANT HEAD     =           0.0000         CONSTANT HEAD     =           0.0000
     HEAD DEP BOUNDS     =      775981.9375       HEAD DEP BOUNDS     =           0.2857
      STREAM LEAKAGE     =    30486528.0000        STREAM LEAKAGE     =          11.2378
        UZF RECHARGE     =       73223.9531          UZF RECHARGE     =           0.0000
               GW ET     =           0.0000                 GW ET     =           0.0000
     SURFACE LEAKAGE     =           0.0000       SURFACE LEAKAGE     =           0.0000
           AG WELLS      =           0.0000             AG WELLS      =           0.0000

                TOTAL IN =    33050874.0000                  TOTAL IN =          12.1144

          OUT:                                     OUT:
          ----                                     ----
             STORAGE     =     3417065.7500               STORAGE     =           1.0022
       CONSTANT HEAD     =           0.0000         CONSTANT HEAD     =           0.0000
     HEAD DEP BOUNDS     =      782190.5000       HEAD DEP BOUNDS     =           0.2886
      STREAM LEAKAGE     =    28852092.0000        STREAM LEAKAGE     =          10.8238
        UZF RECHARGE     =           0.0000          UZF RECHARGE     =           0.0000
               GW ET     =           0.0000                 GW ET     =           0.0000
     SURFACE LEAKAGE     =           0.0000       SURFACE LEAKAGE     =           0.0000
           AG WELLS      =           0.0000             AG WELLS      =           0.0000

               TOTAL OUT =    33051348.0000                 TOTAL OUT =          12.1145

                IN - OUT =        -474.0000                  IN - OUT =      -1.1253E-04

     PERCENT DISCREPANCY =          -0.00         PERCENT DISCREPANCY =          -0.00






         TIME SUMMARY AT END OF TIME STEP   30 IN STRESS PERIOD    2
                    SECONDS     MINUTES      HOURS       DAYS        YEARS
                    -----------------------------------------------------------
   TIME STEP LENGTH  87667.      1461.1      24.352      1.0147     2.77799E-03
 STRESS PERIOD TIME 2.63000E+06  43833.      730.56      30.440     8.33397E-02
         TOTAL TIME 2.71640E+06  45273.      754.56      31.440     8.60775E-02
1
1
                            STRESS PERIOD NO.    3, LENGTH =   2630000.    
                            -----------------------------------------------

                              NUMBER OF TIME STEPS =    30

                               MULTIPLIER FOR DELT =     1.000

                            INITIAL TIME STEP SIZE =   87666.66    

 REUSING NON-PARAMETER GHB CELLS FROM LAST STRESS PERIOD

      2 GHB CELLS

 REUSING STREAM SEGMENT DATA FROM LAST STRESS PERIOD



            AREAL INFILTRATION RATE
 READING ON UNIT   19 WITH FORMAT: (10F4.0)            

            1           2           3           4           5           6           7           8           9          10
 ........................................................................................................................
   1   1.2000E-09   0.000       0.000       0.000       0.000       0.000       0.000       0.000       0.000       0.000    
   2   2.1000E-09  2.0000E-09  8.0000E-10  8.5000E-09   0.000       0.000       0.000       0.000       0.000       0.000    
   3   5.0000E-10  1.1000E-09  8.8000E-09  5.5000E-09   0.000       0.000       0.000       0.000       0.000       0.000    
   4   8.5000E-09  1.1000E-09  1.1000E-09  1.1000E-09  2.0000E-09   0.000       0.000       0.000       0.000       0.000    
   5   8.5000E-09  1.1000E-09  1.1000E-09  1.1000E-09  1.1000E-09   0.000       0.000       0.000       0.000       0.000    
   6   8.5000E-09  5.2000E-09  2.1000E-09  1.1000E-09  1.5000E-09   0.000       0.000       0.000       0.000       0.000    
   7   8.5000E-09  5.2000E-09  2.1000E-09  1.2000E-09  2.0000E-09   0.000       0.000       0.000       0.000       0.000    
   8   5.0000E-10  5.2000E-09  2.1000E-09  1.2000E-09  5.0000E-09   0.000       0.000       0.000       0.000       0.000    
   9   5.0000E-10  5.2000E-09  2.1000E-09  1.2000E-09  5.0000E-09   0.000       0.000       0.000       0.000       0.000    
  10   5.0000E-10  5.2000E-09  2.1000E-09  1.2000E-09  5.8000E-09   0.000       0.000       0.000       0.000       0.000    
  11   1.0000E-10  1.1000E-09  1.1000E-09  1.2000E-09  5.0000E-09   0.000       0.000       0.000       0.000       0.000    
  12   1.1000E-09  1.1000E-09  1.1000E-09  1.1000E-09  2.0000E-09   0.000       0.000       0.000       0.000       0.000    
  13   1.1000E-09  2.2000E-09  2.2000E-09  2.1000E-09  1.0000E-09   0.000       0.000       0.000       0.000       0.000    
  14   2.0000E-10  5.5000E-09  5.5000E-09  5.2000E-09  1.0000E-09   0.000       0.000       0.000       0.000       0.000    
  15    0.000      8.8000E-09  8.8000E-09   0.000       0.000       0.000       0.000       0.000       0.000       0.000    

                  ET RATE =  5.000000E-10

 USING ET EXTINCTION DEPTH FROM PREVIOUS STRESS PERIOD. CURRENT PERIOD IS:       3

 USING EXTINCTION WATER CONTENT FROM PREVIOUS STRESS PERIOD. CURRENT PERIOD IS:       3

 USING AIR ENTRY PRESSURE FROM PREVIOUS STRESS PERIOD. CURRENT PERIOD IS:       3

 USING ROOT PRESSURE HEAD FROM PREVIOUS STRESS PERIOD. CURRENT PERIOD IS:       3

 USING ROOT ACTIVITY FROM PREVIOUS STRESS PERIOD. CURRENT PERIOD IS:       3

 PROCESSING AG STRESS PERIOD DATA

 READING AG STRESS PERIOD DATA

 READING IRRIGATION SEGMENT

 READING IRRIGATION WELL

 READING SUPPLEMENTAL WELL

 END PROCESSING AG STRESS PERIOD DATA OPTIONS
 
 SOLVING FOR HEAD 
                                                   Max.-Head-Change                         Max.-Flux-Residual
  Residual-Control   Outer-Iter.   Inner-Iter.     Column Row Layer    Maximum-Head-Change  Column Row Layer    Maximum-Flux-Residual          L2-NORM 
          0                 1           2             2    2     1       0.3921674315E-02       2    2    1         0.2048622192E+00      0.5014794667E+00
          0                 2           2             7   13     1      -0.7053251228E-03       7   13    1        -0.3904613284E-01      0.6180266540E-01
          0                 3           1             7   13     1       0.4801663477E-04       7   13    1         0.2732485882E-02      0.4275912656E-02

    ------------------------------------------------
       NWT REQUIRED            3 OUTER ITERATIONS 
       AND A TOTAL OF          5 INNER ITERATIONS.
    ------------------------------------------------

 NO OUTPUT CONTROL FOR STRESS PERIOD    3   TIME STEP    1
 
 SOLVING FOR HEAD 
                                                   Max.-Head-Change                         Max.-Flux-Residual
  Residual-Control   Outer-Iter.   Inner-Iter.     Column Row Layer    Maximum-Head-Change  Column Row Layer    Maximum-Flux-Residual          L2-NORM 
          0                 1           2             2   13     1       0.5750918566E-02       4   13    1         0.3268859798E+00      0.7466527050E+00
          0                 2           2             4   13     1      -0.5491622047E-03       4   13    1        -0.3234552439E-01      0.7330801379E-01
          0                 3           1             4   13     1       0.3684545233E-04       4   13    1         0.2231223903E-02      0.5005762429E-02

    ------------------------------------------------
       NWT REQUIRED            3 OUTER ITERATIONS 
       AND A TOTAL OF          5 INNER ITERATIONS.
    ------------------------------------------------

 NO OUTPUT CONTROL FOR STRESS PERIOD    3   TIME STEP    2
 
 SOLVING FOR HEAD 
                                                   Max.-Head-Change                         Max.-Flux-Residual
  Residual-Control   Outer-Iter.   Inner-Iter.     Column Row Layer    Maximum-Head-Change  Column Row Layer    Maximum-Flux-Residual          L2-NORM 
          0                 1           2             2   13     1       0.5322642145E-02       2   13    1         0.2996625911E+00      0.7099689883E+00
          0                 2           2             4   13     1      -0.4985769045E-03       4   13    1        -0.2934563053E-01      0.6977948348E-01
          0                 3           1             4   13     1       0.3344329559E-04       4   13    1         0.2023771309E-02      0.4771701649E-02

    ------------------------------------------------
       NWT REQUIRED            3 OUTER ITERATIONS 
       AND A TOTAL OF          5 INNER ITERATIONS.
    ------------------------------------------------

 NO OUTPUT CONTROL FOR STRESS PERIOD    3   TIME STEP    3
 
 SOLVING FOR HEAD 
                                                   Max.-Head-Change                         Max.-Flux-Residual
  Residual-Control   Outer-Iter.   Inner-Iter.     Column Row Layer    Maximum-Head-Change  Column Row Layer    Maximum-Flux-Residual          L2-NORM 
          0                 1           2             2   13     1       0.4926753371E-02       2   13    1         0.2773393389E+00      0.6771439795E+00
          0                 2           2             2    2     1      -0.4665896571E-03       4   13    1        -0.2664122781E-01      0.6662413586E-01
          0                 3           1             2    2     1       0.3177301681E-04       4   13    1         0.1836226298E-02      0.4562370743E-02

    ------------------------------------------------
       NWT REQUIRED            3 OUTER ITERATIONS 
       AND A TOTAL OF          5 INNER ITERATIONS.
    ------------------------------------------------

 NO OUTPUT CONTROL FOR STRESS PERIOD    3   TIME STEP    4
 
 SOLVING FOR HEAD 
                                                   Max.-Head-Change                         Max.-Flux-Residual
  Residual-Control   Outer-Iter.   Inner-Iter.     Column Row Layer    Maximum-Head-Change  Column Row Layer    Maximum-Flux-Residual          L2-NORM 
          0                 1           2             2    2     1       0.4764287299E-02       2   13    1         0.2566986116E+00      0.6477823314E+00
          0                 2           2             2    2     1      -0.4634361548E-03       2    2    1        -0.2488691194E-01      0.6380279781E-01
          0                 3           1             2    2     1       0.3155827534E-04       2    2    1         0.1742084020E-02      0.4376294995E-02

    ------------------------------------------------
       NWT REQUIRED            3 OUTER ITERATIONS 
       AND A TOTAL OF          5 INNER ITERATIONS.
    ------------------------------------------------

 NO OUTPUT CONTROL FOR STRESS PERIOD    3   TIME STEP    5
 
 SOLVING FOR HEAD 
                                                   Max.-Head-Change                         Max.-Flux-Residual
  Residual-Control   Outer-Iter.   Inner-Iter.     Column Row Layer    Maximum-Head-Change  Column Row Layer    Maximum-Flux-Residual          L2-NORM 
          0                 1           2             2    2     1       0.4732241796E-02       2    2    1         0.2471830872E+00      0.6215328725E+00
          0                 2           2             2    2     1      -0.4603189838E-03       2    2    1        -0.2471836840E-01      0.6128262128E-01
          0                 3           1             2    2     1       0.3134600758E-04       2    2    1         0.1730285976E-02      0.4209603281E-02

    ------------------------------------------------
       NWT REQUIRED            3 OUTER ITERATIONS 
       AND A TOTAL OF          5 INNER ITERATIONS.
    ------------------------------------------------

 NO OUTPUT CONTROL FOR STRESS PERIOD    3   TIME STEP    6
 
 SOLVING FOR HEAD 
                                                   Max.-Head-Change                         Max.-Flux-Residual
  Residual-Control   Outer-Iter.   Inner-Iter.     Column Row Layer    Maximum-Head-Change  Column Row Layer    Maximum-Flux-Residual          L2-NORM 
          0                 1           2             2    2     1       0.4700649041E-02       2    2    1         0.2455215633E+00      0.5980540927E+00
          0                 2           2             2    2     1      -0.4572458531E-03       2    2    1        -0.2455221490E-01      0.5902911462E-01
          0                 3           1             2    2     1       0.3113673871E-04       2    2    1         0.1718655222E-02      0.4060282089E-02

    ------------------------------------------------
       NWT REQUIRED            3 OUTER ITERATIONS 
       AND A TOTAL OF          5 INNER ITERATIONS.
    ------------------------------------------------

 NO OUTPUT CONTROL FOR STRESS PERIOD    3   TIME STEP    7
 
 SOLVING FOR HEAD 
                                                   Max.-Head-Change                         Max.-Flux-Residual
  Residual-Control   Outer-Iter.   Inner-Iter.     Column Row Layer    Maximum-Head-Change  Column Row Layer    Maximum-Flux-Residual          L2-NORM 
          0                 1           2             2    2     1       0.4669502816E-02       2    2    1         0.2438835140E+00      0.5770620800E+00
          0                 2           2             2    2     1      -0.4542161584E-03       2    2    1        -0.2438840888E-01      0.5701451025E-01
          0                 3           1             2    2     1       0.3093042777E-04       2    2    1         0.1707188815E-02      0.3926007986E-02

    ------------------------------------------------
       NWT REQUIRED            3 OUTER ITERATIONS 
       AND A TOTAL OF          5 INNER ITERATIONS.
    ------------------------------------------------

 NO OUTPUT CONTROL FOR STRESS PERIOD    3   TIME STEP    8
 
 SOLVING FOR HEAD 
                                                   Max.-Head-Change                         Max.-Flux-Residual
  Residual-Control   Outer-Iter.   Inner-Iter.     Column Row Layer    Maximum-Head-Change  Column Row Layer    Maximum-Flux-Residual          L2-NORM 
          0                 1           2             2    2     1       0.4638795564E-02       2    2    1         0.2422686168E+00      0.5582715457E+00
          0                 2           2             2    2     1      -0.4512291643E-03       2    2    1        -0.2422691809E-01      0.5521329334E-01
          0                 3           1             2    2     1       0.3072702508E-04       2    2    1         0.1695884480E-02      0.3808459512E-02

    ------------------------------------------------
       NWT REQUIRED            3 OUTER ITERATIONS 
       AND A TOTAL OF          5 INNER ITERATIONS.
    ------------------------------------------------

 NO OUTPUT CONTROL FOR STRESS PERIOD    3   TIME STEP    9
 
 SOLVING FOR HEAD 
                                                   Max.-Head-Change                         Max.-Flux-Residual
  Residual-Control   Outer-Iter.   Inner-Iter.     Column Row Layer    Maximum-Head-Change  Column Row Layer    Maximum-Flux-Residual          L2-NORM 
          0                 1           2             2    2     1       0.4608520201E-02       2    2    1         0.2406764799E+00      0.5414436067E+00
          0                 2           2             2    2     1      -0.4482841814E-03       2    2    1        -0.2406770337E-01      0.5359842281E-01
          0                 3           1             2    2     1       0.3052648283E-04       2    2    1         0.1684739449E-02      0.3701749594E-02

    ------------------------------------------------
       NWT REQUIRED            3 OUTER ITERATIONS 
       AND A TOTAL OF          5 INNER ITERATIONS.
    ------------------------------------------------

 NO OUTPUT CONTROL FOR STRESS PERIOD    3   TIME STEP   10
 
 SOLVING FOR HEAD 
                                                   Max.-Head-Change                         Max.-Flux-Residual
  Residual-Control   Outer-Iter.   Inner-Iter.     Column Row Layer    Maximum-Head-Change  Column Row Layer    Maximum-Flux-Residual          L2-NORM 
          0                 1           2             2    2     1       0.4578583777E-02       2    2    1         0.2391022005E+00      0.5263625514E+00
          0                 2           2             2    2     1      -0.4453721679E-03       2    2    1        -0.2391027442E-01      0.5215209501E-01
          0                 3           1             2    2     1       0.3032818542E-04       2    2    1         0.1673719402E-02      0.3606330745E-02

    ------------------------------------------------
       NWT REQUIRED            3 OUTER ITERATIONS 
       AND A TOTAL OF          5 INNER ITERATIONS.
    ------------------------------------------------

 NO OUTPUT CONTROL FOR STRESS PERIOD    3   TIME STEP   11
 
 SOLVING FOR HEAD 
                                                   Max.-Head-Change                         Max.-Flux-Residual
  Residual-Control   Outer-Iter.   Inner-Iter.     Column Row Layer    Maximum-Head-Change  Column Row Layer    Maximum-Flux-Residual          L2-NORM 
          0                 1           2             2    2     1       0.4549066484E-02       2    2    1         0.2375500300E+00      0.5128182410E+00
          0                 2           2             2    2     1      -0.4425009257E-03       2    2    1        -0.2375505639E-01      0.5085355502E-01
          0                 3           1             2    2     1       0.3013266489E-04       2    2    1         0.1662854172E-02      0.3520408954E-02

    ------------------------------------------------
       NWT REQUIRED            3 OUTER ITERATIONS 
       AND A TOTAL OF          5 INNER ITERATIONS.
    ------------------------------------------------

 NO OUTPUT CONTROL FOR STRESS PERIOD    3   TIME STEP   12
 
 SOLVING FOR HEAD 
                                                   Max.-Head-Change                         Max.-Flux-Residual
  Residual-Control   Outer-Iter.   Inner-Iter.     Column Row Layer    Maximum-Head-Change  Column Row Layer    Maximum-Flux-Residual          L2-NORM 
          0                 1           2             2    2     1       0.4519961969E-02       2    2    1         0.2360195910E+00      0.5006413081E+00
          0                 2           2             2    2     1      -0.4396698351E-03       2    2    1        -0.2360201151E-01      0.4968509028E-01
          0                 3           1             2    2     1       0.2993987818E-04       2    2    1         0.1652141019E-02      0.3442936825E-02

    ------------------------------------------------
       NWT REQUIRED            3 OUTER ITERATIONS 
       AND A TOTAL OF          5 INNER ITERATIONS.
    ------------------------------------------------

 NO OUTPUT CONTROL FOR STRESS PERIOD    3   TIME STEP   13
 
 SOLVING FOR HEAD 
                                                   Max.-Head-Change                         Max.-Flux-Residual
  Residual-Control   Outer-Iter.   Inner-Iter.     Column Row Layer    Maximum-Head-Change  Column Row Layer    Maximum-Flux-Residual          L2-NORM 
          0                 1           2             2    2     1       0.4491263626E-02       2    2    1         0.2345105541E+00      0.4896759081E+00
          0                 2           2             2    2     1      -0.4368782550E-03       2    2    1        -0.2345110689E-01      0.4863149562E-01
          0                 3           1             2    2     1       0.2974978174E-04       2    2    1         0.1641577709E-02      0.3373890833E-02

    ------------------------------------------------
       NWT REQUIRED            3 OUTER ITERATIONS 
       AND A TOTAL OF          5 INNER ITERATIONS.
    ------------------------------------------------

 NO OUTPUT CONTROL FOR STRESS PERIOD    3   TIME STEP   14
 
 SOLVING FOR HEAD 
                                                   Max.-Head-Change                         Max.-Flux-Residual
  Residual-Control   Outer-Iter.   Inner-Iter.     Column Row Layer    Maximum-Head-Change  Column Row Layer    Maximum-Flux-Residual          L2-NORM 
          0                 1           2             2    2     1       0.4462878135E-02       2    2    1         0.2330180408E+00      0.4797701156E+00
          0                 2           2             2    2     1      -0.4341171068E-03       2    2    1        -0.2330185465E-01      0.4767926172E-01
          0                 3           1             2    2     1       0.2956175808E-04       2    2    1         0.1631130053E-02      0.3309991878E-02

    ------------------------------------------------
       NWT REQUIRED            3 OUTER ITERATIONS 
       AND A TOTAL OF          5 INNER ITERATIONS.
    ------------------------------------------------

 NO OUTPUT CONTROL FOR STRESS PERIOD    3   TIME STEP   15
 
 SOLVING FOR HEAD 
                                                   Max.-Head-Change                         Max.-Flux-Residual
  Residual-Control   Outer-Iter.   Inner-Iter.     Column Row Layer    Maximum-Head-Change  Column Row Layer    Maximum-Flux-Residual          L2-NORM 
          0                 1           2             2    2     1       0.4434887332E-02       2    2    1         0.2315462844E+00      0.4708039852E+00
          0                 2           2             2    2     1      -0.4313943516E-03       2    2    1        -0.2315467812E-01      0.4681705795E-01
          0                 3           1             2    2     1       0.2937634871E-04       2    2    1         0.1620827694E-02      0.3252974603E-02

    ------------------------------------------------
       NWT REQUIRED            3 OUTER ITERATIONS 
       AND A TOTAL OF          5 INNER ITERATIONS.
    ------------------------------------------------

 NO OUTPUT CONTROL FOR STRESS PERIOD    3   TIME STEP   16
 
 SOLVING FOR HEAD 
                                                   Max.-Head-Change                         Max.-Flux-Residual
  Residual-Control   Outer-Iter.   Inner-Iter.     Column Row Layer    Maximum-Head-Change  Column Row Layer    Maximum-Flux-Residual          L2-NORM 
          0                 1           2             2    2     1       0.4407284512E-02       2    2    1         0.2300949921E+00      0.4626738032E+00
          0                 2           2             2    2     1      -0.4287093364E-03       2    2    1        -0.2300954801E-01      0.4603414640E-01
          0                 3           1             2    2     1       0.2919350914E-04       2    2    1         0.1610668590E-02      0.3200993988E-02

    ------------------------------------------------
       NWT REQUIRED            3 OUTER ITERATIONS 
       AND A TOTAL OF          5 INNER ITERATIONS.
    ------------------------------------------------

 NO OUTPUT CONTROL FOR STRESS PERIOD    3   TIME STEP   17
 
 SOLVING FOR HEAD 
                                                   Max.-Head-Change                         Max.-Flux-Residual
  Residual-Control   Outer-Iter.   Inner-Iter.     Column Row Layer    Maximum-Head-Change  Column Row Layer    Maximum-Flux-Residual          L2-NORM 
          0                 1           2             2    2     1       0.4380053296E-02       2    2    1         0.2286632850E+00      0.4552772135E+00
          0                 2           2             2    2     1      -0.4260604691E-03       2    2    1        -0.2286637646E-01      0.4532127812E-01
          0                 3           1             2    2     1       0.2901313145E-04       2    2    1         0.1600646596E-02      0.3153064843E-02

    ------------------------------------------------
       NWT REQUIRED            3 OUTER ITERATIONS 
       AND A TOTAL OF          5 INNER ITERATIONS.
    ------------------------------------------------

 NO OUTPUT CONTROL FOR STRESS PERIOD    3   TIME STEP   18
 
 SOLVING FOR HEAD 
                                                   Max.-Head-Change                         Max.-Flux-Residual
  Residual-Control   Outer-Iter.   Inner-Iter.     Column Row Layer    Maximum-Head-Change  Column Row Layer    Maximum-Flux-Residual          L2-NORM 
          0                 1           2             2    2     1       0.4353208404E-02       2    2    1         0.2272519079E+00      0.4485351079E+00
          0                 2           2             2    2     1      -0.4234491801E-03       2    2    1        -0.2272523790E-01      0.4467083066E-01
          0                 3           1             2    2     1       0.2883531219E-04       2    2    1         0.1590766884E-02      0.3106496543E-02

    ------------------------------------------------
       NWT REQUIRED            3 OUTER ITERATIONS 
       AND A TOTAL OF          5 INNER ITERATIONS.
    ------------------------------------------------

 NO OUTPUT CONTROL FOR STRESS PERIOD    3   TIME STEP   19
 
 SOLVING FOR HEAD 
                                                   Max.-Head-Change                         Max.-Flux-Residual
  Residual-Control   Outer-Iter.   Inner-Iter.     Column Row Layer    Maximum-Head-Change  Column Row Layer    Maximum-Flux-Residual          L2-NORM 
          0                 1           2             2    2     1       0.4326647144E-02       2    2    1         0.2258554932E+00      0.4423566070E+00
          0                 2           2             2    2     1      -0.4208654817E-03       2    2    1        -0.2258559561E-01      0.4407370834E-01
          0                 3           1             2    2     1       0.2865937236E-04       2    2    1         0.1580991941E-02      0.3070084703E-02

    ------------------------------------------------
       NWT REQUIRED            3 OUTER ITERATIONS 
       AND A TOTAL OF          5 INNER ITERATIONS.
    ------------------------------------------------

 NO OUTPUT CONTROL FOR STRESS PERIOD    3   TIME STEP   20
 
 SOLVING FOR HEAD 
                                                   Max.-Head-Change                         Max.-Flux-Residual
  Residual-Control   Outer-Iter.   Inner-Iter.     Column Row Layer    Maximum-Head-Change  Column Row Layer    Maximum-Flux-Residual          L2-NORM 
          0                 1           2             2    2     1       0.4300537873E-02       2    2    1         0.2244828579E+00      0.4366854346E+00
          0                 2           2             2    2     1      -0.4183257494E-03       2    2    1        -0.2244833127E-01      0.4352496206E-01
          0                 3           1             2    2     1       0.2848642620E-04       2    2    1         0.1571383437E-02      0.3033084529E-02

    ------------------------------------------------
       NWT REQUIRED            3 OUTER ITERATIONS 
       AND A TOTAL OF          5 INNER ITERATIONS.
    ------------------------------------------------

 NO OUTPUT CONTROL FOR STRESS PERIOD    3   TIME STEP   21
 
 SOLVING FOR HEAD 
                                                   Max.-Head-Change                         Max.-Flux-Residual
  Residual-Control   Outer-Iter.   Inner-Iter.     Column Row Layer    Maximum-Head-Change  Column Row Layer    Maximum-Flux-Residual          L2-NORM 
          0                 1           2             2    2     1       0.4274700542E-02       2    2    1         0.2231245841E+00      0.4314653900E+00
          0                 2           2             2    2     1      -0.4158124697E-03       2    2    1        -0.2231250313E-01      0.4301899638E-01
          0                 3           1             2    2     1       0.2831528113E-04       2    2    1         0.1561875467E-02      0.2999378913E-02

    ------------------------------------------------
       NWT REQUIRED            3 OUTER ITERATIONS 
       AND A TOTAL OF          5 INNER ITERATIONS.
    ------------------------------------------------

 NO OUTPUT CONTROL FOR STRESS PERIOD    3   TIME STEP   22
 
 SOLVING FOR HEAD 
                                                   Max.-Head-Change                         Max.-Flux-Residual
  Residual-Control   Outer-Iter.   Inner-Iter.     Column Row Layer    Maximum-Head-Change  Column Row Layer    Maximum-Flux-Residual          L2-NORM 
          0                 1           2             2    2     1       0.4249130085E-02       2    2    1         0.2217804099E+00      0.4266367089E+00
          0                 2           2             2    2     1      -0.4133251500E-03       2    2    1        -0.2217808494E-01      0.4255044582E-01
          0                 3           1             2    2     1       0.2814590378E-04       2    2    1         0.1552466195E-02      0.2968086185E-02

    ------------------------------------------------
       NWT REQUIRED            3 OUTER ITERATIONS 
       AND A TOTAL OF          5 INNER ITERATIONS.
    ------------------------------------------------

 NO OUTPUT CONTROL FOR STRESS PERIOD    3   TIME STEP   23
 
 SOLVING FOR HEAD 
                                                   Max.-Head-Change                         Max.-Flux-Residual
  Residual-Control   Outer-Iter.   Inner-Iter.     Column Row Layer    Maximum-Head-Change  Column Row Layer    Maximum-Flux-Residual          L2-NORM 
          0                 1           2             2    2     1       0.4223995221E-02       2    2    1         0.2204591469E+00      0.4221691981E+00
          0                 2           2             2    2     1      -0.4108802022E-03       2    2    1        -0.2204595790E-01      0.4211679636E-01
          0                 3           1             2    2     1       0.2797941265E-04       2    2    1         0.1543217321E-02      0.2939118281E-02

    ------------------------------------------------
       NWT REQUIRED            3 OUTER ITERATIONS 
       AND A TOTAL OF          5 INNER ITERATIONS.
    ------------------------------------------------

 NO OUTPUT CONTROL FOR STRESS PERIOD    3   TIME STEP   24
 
 SOLVING FOR HEAD 
                                                   Max.-Head-Change                         Max.-Flux-Residual
  Residual-Control   Outer-Iter.   Inner-Iter.     Column Row Layer    Maximum-Head-Change  Column Row Layer    Maximum-Flux-Residual          L2-NORM 
          0                 1           2             2    2     1       0.4199203260E-02       2    2    1         0.2191559319E+00      0.4180113375E+00
          0                 2           2             2    2     1      -0.4084686092E-03       2    2    1        -0.2191563567E-01      0.4171197794E-01
          0                 3           1             2    2     1       0.2781519193E-04       2    2    1         0.1534094755E-02      0.2912019101E-02

    ------------------------------------------------
       NWT REQUIRED            3 OUTER ITERATIONS 
       AND A TOTAL OF          5 INNER ITERATIONS.
    ------------------------------------------------

 NO OUTPUT CONTROL FOR STRESS PERIOD    3   TIME STEP   25
 
 SOLVING FOR HEAD 
                                                   Max.-Head-Change                         Max.-Flux-Residual
  Residual-Control   Outer-Iter.   Inner-Iter.     Column Row Layer    Maximum-Head-Change  Column Row Layer    Maximum-Flux-Residual          L2-NORM 
          0                 1           2             2    2     1       0.4174662367E-02       2    2    1         0.2178659586E+00      0.4141292056E+00
          0                 2           2             2    2     1      -0.4060814388E-03       2    2    1        -0.2178663763E-01      0.4133395232E-01
          0                 3           1             2    2     1       0.2765263431E-04       2    2    1         0.1525064894E-02      0.2884388547E-02

    ------------------------------------------------
       NWT REQUIRED            3 OUTER ITERATIONS 
       AND A TOTAL OF          5 INNER ITERATIONS.
    ------------------------------------------------

 NO OUTPUT CONTROL FOR STRESS PERIOD    3   TIME STEP   26
 
 SOLVING FOR HEAD 
                                                   Max.-Head-Change                         Max.-Flux-Residual
  Residual-Control   Outer-Iter.   Inner-Iter.     Column Row Layer    Maximum-Head-Change  Column Row Layer    Maximum-Flux-Residual          L2-NORM 
          0                 1           2             2    2     1       0.4150454283E-02       2    2    1         0.2165935402E+00      0.4105042772E+00
          0                 2           2             2    2     1      -0.4037266423E-03       2    2    1        -0.2165939511E-01      0.4100338821E-01
          0                 3           1             2    2     1       0.2749228155E-04       2    2    1         0.1516157932E-02      0.2863804460E-02

    ------------------------------------------------
       NWT REQUIRED            3 OUTER ITERATIONS 
       AND A TOTAL OF          5 INNER ITERATIONS.
    ------------------------------------------------

 NO OUTPUT CONTROL FOR STRESS PERIOD    3   TIME STEP   27
 
 SOLVING FOR HEAD 
                                                   Max.-Head-Change                         Max.-Flux-Residual
  Residual-Control   Outer-Iter.   Inner-Iter.     Column Row Layer    Maximum-Head-Change  Column Row Layer    Maximum-Flux-Residual          L2-NORM 
          0                 1           2             2    2     1       0.4126574528E-02       2    2    1         0.2153383776E+00      0.4070773235E+00
          0                 2           2             2    2     1      -0.4014037830E-03       2    2    1        -0.2153387818E-01      0.4064450678E-01
          0                 3           1             2    2     1       0.2733410333E-04       2    2    1         0.1507371731E-02      0.2839614649E-02

    ------------------------------------------------
       NWT REQUIRED            3 OUTER ITERATIONS 
       AND A TOTAL OF          5 INNER ITERATIONS.
    ------------------------------------------------

 NO OUTPUT CONTROL FOR STRESS PERIOD    3   TIME STEP   28
 
 SOLVING FOR HEAD 
                                                   Max.-Head-Change                         Max.-Flux-Residual
  Residual-Control   Outer-Iter.   Inner-Iter.     Column Row Layer    Maximum-Head-Change  Column Row Layer    Maximum-Flux-Residual          L2-NORM 
          0                 1           2             2    2     1       0.4103017140E-02       2    2    1         0.2141002385E+00      0.4038613654E+00
          0                 2           2             2    2     1      -0.3991122815E-03       2    2    1        -0.2141006360E-01      0.4032968888E-01
          0                 3           1             2    2     1       0.2717806086E-04       2    2    1         0.1498704727E-02      0.2817895527E-02

    ------------------------------------------------
       NWT REQUIRED            3 OUTER ITERATIONS 
       AND A TOTAL OF          5 INNER ITERATIONS.
    ------------------------------------------------

 NO OUTPUT CONTROL FOR STRESS PERIOD    3   TIME STEP   29
 
 SOLVING FOR HEAD 
                                                   Max.-Head-Change                         Max.-Flux-Residual
  Residual-Control   Outer-Iter.   Inner-Iter.     Column Row Layer    Maximum-Head-Change  Column Row Layer    Maximum-Flux-Residual          L2-NORM 
          0                 1           2             4   13     1       0.9284201481E-02       4   13    1         0.5334304184E+00      0.1130034859E+01
          0                 2           2             4   13     1      -0.8932968478E-03       4   13    1        -0.5277076353E-01      0.1105720053E+00
          0                 3           1             4   13     1       0.5990282491E-04       4   13    1         0.3638288493E-02      0.7512443199E-02

    ------------------------------------------------
       NWT REQUIRED            3 OUTER ITERATIONS 
       AND A TOTAL OF          5 INNER ITERATIONS.
    ------------------------------------------------

 NO OUTPUT CONTROL FOR STRESS PERIOD    3   TIME STEP   30



 STREAM LISTING     PERIOD      3   STEP       30

 LAYER ROW COL. STREAM  RCH.  FLOW INTO     FLOW TO   FLOW OUT OF   OVRLND.     DIRECT     STREAM       STREAM     STREAM     STREAM   STREAMBED  STREAMBED
                SEG.NO.  NO.  STRM. RCH.    AQUIFER    STRM. RCH.    RUNOFF     PRECIP       ET          HEAD       DEPTH      WIDTH   CONDCTNC.   GRADIENT

   1    1    1     1     1    5.4376E+01  3.5202E-01   5.4024E+01  0.000E+00  0.000E+00  0.000E+00  1.09450E+03  1.455E+00  1.756E+01  7.901E-02  1.485E+00
   1    2    2     1     2    5.4024E+01  5.4505E-01   5.3479E+01  0.000E+00  0.000E+00  0.000E+00  1.08951E+03  1.449E+00  1.750E+01  1.225E-01  1.483E+00
   1    3    3     1     3    5.3479E+01  4.6474E-01   5.3014E+01  0.000E+00  0.000E+00  0.000E+00  1.08386E+03  1.443E+00  1.743E+01  1.046E-01  1.481E+00
   1    3    4     1     4    5.3014E+01  4.2788E-01   5.2587E+01  0.000E+00  0.000E+00  0.000E+00  1.07884E+03  1.437E+00  1.738E+01  9.643E-02  1.479E+00
   1    4    5     2     1    5.0587E+01  3.7745E-01   5.0209E+01  0.000E+00  0.000E+00  0.000E+00  1.07377E+03  1.839E+00  1.200E+01  7.800E-02  1.613E+00
   1    5    6     2     2    5.0209E+01  2.8990E-01   4.9919E+01  0.000E+00  0.000E+00  0.000E+00  1.06834E+03  1.832E+00  1.200E+01  6.000E-02  1.611E+00
   1    6    6     2     3    4.9919E+01  2.8952E-01   4.9630E+01  0.000E+00  0.000E+00  0.000E+00  1.06362E+03  1.825E+00  1.200E+01  6.000E-02  1.608E+00
   1    7    6     2     4    4.9630E+01  2.8914E-01   4.9341E+01  0.000E+00  0.000E+00  0.000E+00  1.05889E+03  1.819E+00  1.200E+01  6.000E-02  1.606E+00
   1    8    6     2     5    4.9341E+01  2.8876E-01   4.9052E+01  0.000E+00  0.000E+00  0.000E+00  1.05417E+03  1.813E+00  1.200E+01  6.000E-02  1.604E+00
   1    3    5     3     1    2.0000E+00  2.8252E-01   1.7175E+00  0.000E+00  0.000E+00  0.000E+00  1.07555E+03  1.909E+00  9.636E+00  7.227E-02  1.955E+00
   1    3    6     3     2    1.7175E+00  2.4905E-01   1.4684E+00  0.000E+00  0.000E+00  0.000E+00  1.07264E+03  1.727E+00  8.909E+00  6.682E-02  1.864E+00
   1    3    7     3     3    1.4684E+00  1.9718E-01   1.2712E+00  0.000E+00  0.000E+00  0.000E+00  1.06987E+03  1.555E+00  8.218E+00  5.547E-02  1.777E+00
   1    4    8     3     4    1.2712E+00  2.2567E-01   1.0456E+00  0.000E+00  0.000E+00  0.000E+00  1.06682E+03  1.364E+00  7.455E+00  6.709E-02  1.682E+00
   1    5    8     3     5    1.0456E+00  1.5790E-01   8.8768E-01  0.000E+00  0.000E+00  0.000E+00  1.06362E+03  1.164E+00  6.655E+00  4.991E-02  1.582E+00
   1    6    8     3     6    8.8768E-01  5.5980E-02   8.3170E-01  0.000E+00  0.000E+00  0.000E+00  1.06158E+03  1.036E+00  6.145E+00  1.844E-02  1.518E+00
   1    5   10     4     1    1.0000E+01  9.0919E-02   9.9091E+00  0.000E+00  0.000E+00  0.000E+00  1.07836E+03  6.368E-01  1.000E+01  2.500E-02  1.212E+00
   1    5    9     4     2    9.9091E+00  1.8158E-01   9.7275E+00  0.000E+00  0.000E+00  0.000E+00  1.07154E+03  6.315E-01  1.000E+01  5.000E-02  1.211E+00
   1    6    8     4     3    9.7275E+00  1.2689E-01   9.6006E+00  0.000E+00  0.000E+00  0.000E+00  1.06381E+03  6.256E-01  1.000E+01  3.500E-02  1.209E+00
   1    6    8     5     1    1.0432E+01  2.2686E-01   1.0205E+01  0.000E+00  0.000E+00  0.000E+00  1.05868E+03  6.790E-01  1.542E+01  6.166E-02  1.226E+00
   1    7    7     5     2    1.0205E+01  2.7894E-01   9.9265E+00  0.000E+00  0.000E+00  0.000E+00  1.05417E+03  6.732E-01  1.519E+01  7.594E-02  1.224E+00
   1    8    7     5     3    9.9265E+00  1.9221E-01   9.7343E+00  0.000E+00  0.000E+00  0.000E+00  1.04992E+03  6.676E-01  1.497E+01  5.241E-02  1.223E+00
   1    8    6     5     4    9.7343E+00  1.3577E-01   9.5985E+00  0.000E+00  0.000E+00  0.000E+00  1.04691E+03  6.637E-01  1.482E+01  3.706E-02  1.221E+00
   1    9    6     6     1    5.8650E+01  3.0201E-01   5.8348E+01  0.000E+00  0.000E+00  0.000E+00  1.04476E+03  2.034E+00  1.200E+01  6.000E-02  1.678E+00
   1   10    7     6     2    5.8348E+01  3.0164E-01   5.8047E+01  0.000E+00  0.000E+00  0.000E+00  1.04021E+03  2.027E+00  1.200E+01  6.000E-02  1.676E+00
   1   11    7     6     3    5.8047E+01  3.0126E-01   5.7745E+01  0.000E+00  0.000E+00  0.000E+00  1.03566E+03  2.021E+00  1.200E+01  6.000E-02  1.674E+00
   1   12    7     6     4    5.7745E+01  3.0088E-01   5.7445E+01  0.000E+00  0.000E+00  0.000E+00  1.03111E+03  2.015E+00  1.200E+01  6.000E-02  1.672E+00
   1   13    7     6     5    5.7445E+01  1.9610E-02   5.7425E+01  0.000E+00  0.000E+00  0.000E+00  1.02792E+03  2.011E+00  1.200E+01  2.400E-02  2.724E-01
   1   14    9     7     1    1.5000E+02  1.3354E+00   1.4866E+02  0.000E+00  0.000E+00  0.000E+00  1.03987E+03  2.288E+00  5.529E+01  5.593E-01  7.958E-01
   1   13    8     7     2    1.4866E+02  1.8318E+00   1.4683E+02  0.000E+00  0.000E+00  0.000E+00  1.03478E+03  2.279E+00  5.526E+01  6.148E-01  9.932E-01
   1   13    7     7     3    1.4683E+02  1.4445E+00   1.4539E+02  0.000E+00  0.000E+00  0.000E+00  1.02969E+03  2.271E+00  5.522E+01  5.585E-01  8.622E-01
   1   13    6     8     1    2.0281E+02  1.0345E+00   2.0178E+02  0.000E+00  0.000E+00  0.000E+00  1.02503E+03  3.151E+00  4.569E+01  4.656E-01  7.406E-01
   1   13    5     8     2    2.0178E+02  2.2961E-01   2.0155E+02  0.000E+00  0.000E+00  0.000E+00  1.01877E+03  3.147E+00  4.564E+01  4.651E-01  1.646E-01
   1   13    4     8     3    2.0155E+02 -2.0676E+00   2.0362E+02  0.000E+00  0.000E+00  0.000E+00  1.01253E+03  3.153E+00  4.572E+01  4.659E+00 -1.479E-01
   1   13    3     8     4    2.0362E+02 -3.2620E+00   2.0688E+02  0.000E+00  0.000E+00  0.000E+00  1.00629E+03  3.168E+00  4.594E+01  4.682E+00 -2.323E-01
   1   13    2     8     5    2.0688E+02 -2.0904E+00   2.0897E+02  0.000E+00  0.000E+00  0.000E+00  1.00006E+03  3.184E+00  4.616E+01  4.704E+00 -1.481E-01
   1   13    1     8     6    2.0897E+02 -1.6687E+00   2.1064E+02  0.000E+00  0.000E+00  0.000E+00  9.95070E+02  3.195E+00  4.632E+01  2.832E+00 -1.964E-01
   1    8    6     9     1    0.0000E+00  0.0000E+00   0.0000E+00  0.000E+00  0.000E+00  0.000E+00  1.07875E+03  0.000E+00  4.000E+00  0.000E+00  1.000E+00
   1    8    5     9     2    0.0000E+00  0.0000E+00   0.0000E+00  0.000E+00  0.000E+00  0.000E+00  1.07825E+03  0.000E+00  4.000E+00  0.000E+00  1.000E+00





UNSATURATED ZONE PACKAGE VOLUMETRIC BUDGET FOR  TIME STEP    30 STRESS PERIOD    3
  ------------------------------------------------------------------------------



     CUMULATIVE VOLUMES      L**3       RATES FOR THIS TIME STEP      L**3/T
     ------------------                 ------------------------

           IN:                                      IN:
           ---                                      ---
        INFILTRATION =    23256673.1162          INFILTRATION =           4.4075

          OUT:                                     OUT:
          ----                                     ----
              UZF ET =     3813499.6315                UZF ET =           0.7250
        UZF RECHARGE =       73224.0000          UZF RECHARGE =       0.0000E+00

            IN - OUT =    19369949.4847              IN - OUT =           3.6825

          STORAGE:                                 STORAGE:
          --------                                 --------
      STORAGE CHANGE =    19369949.3669        STORAGE CHANGE =           3.6825

 PERCENT DISCREPANCY IS DIFFERENCE BETWEEN IN-OUT MINUS CHANGE IN STORAGE
 DIVIDED BY THE AVERAGE OF IN AND OUT TIMES 100

 PERCENT DISCREPANCY =           0.00     PERCENT DISCREPANCY =           0.00






1
  VOLUMETRIC BUDGET FOR ENTIRE MODEL AT END OF TIME STEP   30, STRESS PERIOD   3
  ------------------------------------------------------------------------------

     CUMULATIVE VOLUMES      L**3       RATES FOR THIS TIME STEP      L**3/T
     ------------------                 ------------------------

           IN:                                      IN:
           ---                                      ---
               AG WELLS  =           0.0000                 AG WELLS  =           0.0000
      DIVERSION SEGMENTS =           0.0000        DIVERSION SEGMENTS =           0.0000
           GW IRRIGATION =           0.0000             GW IRRIGATION =           0.0000
           SW IRRIGATION =           0.0000             SW IRRIGATION =           0.0000
        SYSTEM LOSSES GW =           0.0000          SYSTEM LOSSES GW =           0.0000
        SYSTEM LOSSES SW =           0.0000          SYSTEM LOSSES SW =           0.0000

                TOTAL IN =           0.0000                  TOTAL IN =           0.0000

          OUT:                                     OUT:
          ----                                     ----
               AG WELLS  =           0.0000                 AG WELLS  =           0.0000
      DIVERSION SEGMENTS =           0.0000        DIVERSION SEGMENTS =           0.0000
           GW IRRIGATION =           0.0000             GW IRRIGATION =           0.0000
           SW IRRIGATION =           0.0000             SW IRRIGATION =           0.0000
        SYSTEM LOSSES GW =           0.0000          SYSTEM LOSSES GW =           0.0000
        SYSTEM LOSSES SW =           0.0000          SYSTEM LOSSES SW =           0.0000

               TOTAL OUT =           0.0000                 TOTAL OUT =           0.0000

                IN - OUT =           0.0000                  IN - OUT =           0.0000

     PERCENT DISCREPANCY =           0.00         PERCENT DISCREPANCY =           0.00



1
  VOLUMETRIC BUDGET FOR ENTIRE MODEL AT END OF TIME STEP   30, STRESS PERIOD   3
  ------------------------------------------------------------------------------

     CUMULATIVE VOLUMES      L**3       RATES FOR THIS TIME STEP      L**3/T
     ------------------                 ------------------------

           IN:                                      IN:
           ---                                      ---
             STORAGE     =     3117607.0000               STORAGE     =           0.4861
       CONSTANT HEAD     =           0.0000         CONSTANT HEAD     =           0.0000
     HEAD DEP BOUNDS     =     1527398.1250       HEAD DEP BOUNDS     =           0.2857
      STREAM LEAKAGE     =    62006404.0000        STREAM LEAKAGE     =          12.8271
        UZF RECHARGE     =       73223.9531          UZF RECHARGE     =           0.0000
               GW ET     =           0.0000                 GW ET     =           0.0000
     SURFACE LEAKAGE     =           0.0000       SURFACE LEAKAGE     =           0.0000
           AG WELLS      =           0.0000             AG WELLS      =           0.0000

                TOTAL IN =    66724632.0000                  TOTAL IN =          13.5989

          OUT:                                     OUT:
          ----                                     ----
             STORAGE     =     9181373.0000               STORAGE     =           4.2202
       CONSTANT HEAD     =           0.0000         CONSTANT HEAD     =           0.0000
     HEAD DEP BOUNDS     =     1544872.2500       HEAD DEP BOUNDS     =           0.2910
      STREAM LEAKAGE     =    56000096.0000        STREAM LEAKAGE     =           9.0887
        UZF RECHARGE     =           0.0000          UZF RECHARGE     =           0.0000
               GW ET     =           0.0000                 GW ET     =           0.0000
     SURFACE LEAKAGE     =           0.0000       SURFACE LEAKAGE     =           0.0000
           AG WELLS      =           0.0000             AG WELLS      =           0.0000

               TOTAL OUT =    66726340.0000                 TOTAL OUT =          13.5999

                IN - OUT =       -1708.0000                  IN - OUT =      -1.0595E-03

     PERCENT DISCREPANCY =          -0.00         PERCENT DISCREPANCY =          -0.01






         TIME SUMMARY AT END OF TIME STEP   30 IN STRESS PERIOD    3
                    SECONDS     MINUTES      HOURS       DAYS        YEARS
                    -----------------------------------------------------------
   TIME STEP LENGTH  87667.      1461.1      24.352      1.0147     2.77799E-03
 STRESS PERIOD TIME 2.63000E+06  43833.      730.56      30.440     8.33397E-02
         TOTAL TIME 5.34640E+06  89107.      1485.1      61.880     0.16942    
1
1
                            STRESS PERIOD NO.    4, LENGTH =   2630000.    
                            -----------------------------------------------

                              NUMBER OF TIME STEPS =    30

                               MULTIPLIER FOR DELT =     1.000

                            INITIAL TIME STEP SIZE =   87666.66    

 REUSING NON-PARAMETER GHB CELLS FROM LAST STRESS PERIOD

      2 GHB CELLS

 REUSING STREAM SEGMENT DATA FROM LAST STRESS PERIOD



            AREAL INFILTRATION RATE
 READING ON UNIT   19 WITH FORMAT: (10F4.0)            

            1           2           3           4           5           6           7           8           9          10
 ........................................................................................................................
   1   1.2000E-09   0.000       0.000       0.000       0.000       0.000       0.000       0.000       0.000       0.000    
   2   2.1000E-09  2.0000E-09  8.0000E-10  8.5000E-09   0.000       0.000       0.000       0.000       0.000       0.000    
   3   5.0000E-10  1.1000E-09  8.8000E-09  5.5000E-09   0.000       0.000       0.000       0.000       0.000       0.000    
   4   8.5000E-09  1.1000E-09  1.1000E-09  1.1000E-09  2.0000E-09   0.000       0.000       0.000       0.000       0.000    
   5   8.5000E-09  1.1000E-09  1.1000E-09  1.1000E-09  1.1000E-09   0.000       0.000       0.000       0.000       0.000    
   6   8.5000E-09  5.2000E-09  2.1000E-09  1.1000E-09  1.5000E-09   0.000       0.000       0.000       0.000       0.000    
   7   8.5000E-09  5.2000E-09  2.1000E-09  1.2000E-09  2.0000E-09   0.000       0.000       0.000       0.000       0.000    
   8   5.0000E-10  5.2000E-09  2.1000E-09  1.2000E-09  5.0000E-09   0.000       0.000       0.000       0.000       0.000    
   9   5.0000E-10  5.2000E-09  2.1000E-09  1.2000E-09  5.0000E-09   0.000       0.000       0.000       0.000       0.000    
  10   5.0000E-10  5.2000E-09  2.1000E-09  1.2000E-09  5.8000E-09   0.000       0.000       0.000       0.000       0.000    
  11   1.0000E-10  1.1000E-09  1.1000E-09  1.2000E-09  5.0000E-09   0.000       0.000       0.000       0.000       0.000    
  12   1.1000E-09  1.1000E-09  1.1000E-09  1.1000E-09  2.0000E-09   0.000       0.000       0.000       0.000       0.000    
  13   1.1000E-09  2.2000E-09  2.2000E-09  2.1000E-09  1.0000E-09   0.000       0.000       0.000       0.000       0.000    
  14   2.0000E-10  5.5000E-09  5.5000E-09  5.2000E-09  1.0000E-09   0.000       0.000       0.000       0.000       0.000    
  15    0.000      8.8000E-09  8.8000E-09   0.000       0.000       0.000       0.000       0.000       0.000       0.000    

                  ET RATE =  5.000000E-10

 USING ET EXTINCTION DEPTH FROM PREVIOUS STRESS PERIOD. CURRENT PERIOD IS:       4

 USING EXTINCTION WATER CONTENT FROM PREVIOUS STRESS PERIOD. CURRENT PERIOD IS:       4

 USING AIR ENTRY PRESSURE FROM PREVIOUS STRESS PERIOD. CURRENT PERIOD IS:       4

 USING ROOT PRESSURE HEAD FROM PREVIOUS STRESS PERIOD. CURRENT PERIOD IS:       4

 USING ROOT ACTIVITY FROM PREVIOUS STRESS PERIOD. CURRENT PERIOD IS:       4

 PROCESSING AG STRESS PERIOD DATA

 READING AG STRESS PERIOD DATA

 READING IRRIGATION SEGMENT

 READING IRRIGATION WELL

 READING SUPPLEMENTAL WELL

 END PROCESSING AG STRESS PERIOD DATA OPTIONS
 
 SOLVING FOR HEAD 
                                                   Max.-Head-Change                         Max.-Flux-Residual
  Residual-Control   Outer-Iter.   Inner-Iter.     Column Row Layer    Maximum-Head-Change  Column Row Layer    Maximum-Flux-Residual          L2-NORM 
          0                 1           2             2   13     1       0.9725057082E-02       4   13    1         0.5576975568E+00      0.1193583361E+01
          0                 2           2             4   13     1      -0.9337713642E-03       4   13    1        -0.5516631959E-01      0.1167642616E+00
          0                 3           1             4   13     1       0.6262972701E-04       4   13    1         0.3804199390E-02      0.7933033234E-02

    ------------------------------------------------
       NWT REQUIRED            3 OUTER ITERATIONS 
       AND A TOTAL OF          5 INNER ITERATIONS.
    ------------------------------------------------

 NO OUTPUT CONTROL FOR STRESS PERIOD    4   TIME STEP    1
 
 SOLVING FOR HEAD 
                                                   Max.-Head-Change                         Max.-Flux-Residual
  Residual-Control   Outer-Iter.   Inner-Iter.     Column Row Layer    Maximum-Head-Change  Column Row Layer    Maximum-Flux-Residual          L2-NORM 
          0                 1           2             2   13     1       0.8973369796E-02       2   13    1         0.5068511889E+00      0.1126257433E+01
          0                 2           2             4   13     1      -0.8452395992E-03       4   13    1        -0.4989939379E-01      0.1102962872E+00
          0                 3           1             4   13     1       0.5667117091E-04       4   13    1         0.3439700490E-02      0.7504133735E-02

    ------------------------------------------------
       NWT REQUIRED            3 OUTER ITERATIONS 
       AND A TOTAL OF          5 INNER ITERATIONS.
    ------------------------------------------------

 NO OUTPUT CONTROL FOR STRESS PERIOD    4   TIME STEP    2
 
 SOLVING FOR HEAD 
                                                   Max.-Head-Change                         Max.-Flux-Residual
  Residual-Control   Outer-Iter.   Inner-Iter.     Column Row Layer    Maximum-Head-Change  Column Row Layer    Maximum-Flux-Residual          L2-NORM 
          0                 1           2             2   13     1       0.8280459169E-02       2   13    1         0.4676525419E+00      0.1066119992E+01
          0                 2           2             2   13     1      -0.7686649461E-03       4   13    1        -0.4516941656E-01      0.1045246265E+00
          0                 3           1             4   13     1       0.5134722293E-04       4   13    1         0.3114153149E-02      0.7124025918E-02

    ------------------------------------------------
       NWT REQUIRED            3 OUTER ITERATIONS 
       AND A TOTAL OF          5 INNER ITERATIONS.
    ------------------------------------------------

 NO OUTPUT CONTROL FOR STRESS PERIOD    4   TIME STEP    3
 
 SOLVING FOR HEAD 
                                                   Max.-Head-Change                         Max.-Flux-Residual
  Residual-Control   Outer-Iter.   Inner-Iter.     Column Row Layer    Maximum-Head-Change  Column Row Layer    Maximum-Flux-Residual          L2-NORM 
          0                 1           2             2   13     1       0.7641826559E-02       2   13    1         0.4315264897E+00      0.1012448391E+01
          0                 2           2             2   13     1      -0.7096745105E-03       2   13    1        -0.4119303159E-01      0.9937730550E-01
          0                 3           1             4   13     1       0.4651142625E-04       4   13    1         0.2818559245E-02      0.6782829912E-02

    ------------------------------------------------
       NWT REQUIRED            3 OUTER ITERATIONS 
       AND A TOTAL OF          5 INNER ITERATIONS.
    ------------------------------------------------

 NO OUTPUT CONTROL FOR STRESS PERIOD    4   TIME STEP    4
 
 SOLVING FOR HEAD 
                                                   Max.-Head-Change                         Max.-Flux-Residual
  Residual-Control   Outer-Iter.   Inner-Iter.     Column Row Layer    Maximum-Head-Change  Column Row Layer    Maximum-Flux-Residual          L2-NORM 
          0                 1           2             2   13     1       0.7053173307E-02       2   13    1         0.3982296416E+00      0.9645830343E+00
          0                 2           2             2   13     1      -0.6552409476E-03       2   13    1        -0.3802782554E-01      0.9479064988E-01
          0                 3           1             2    2     1       0.4352554809E-04       4   13    1         0.2556693888E-02      0.6480985374E-02

    ------------------------------------------------
       NWT REQUIRED            3 OUTER ITERATIONS 
       AND A TOTAL OF          5 INNER ITERATIONS.
    ------------------------------------------------

 NO OUTPUT CONTROL FOR STRESS PERIOD    4   TIME STEP    5
 
 SOLVING FOR HEAD 
                                                   Max.-Head-Change                         Max.-Flux-Residual
  Residual-Control   Outer-Iter.   Inner-Iter.     Column Row Layer    Maximum-Head-Change  Column Row Layer    Maximum-Flux-Residual          L2-NORM 
          0                 1           2             2    2     1       0.6530654896E-02       2   13    1         0.3675413830E+00      0.9219219990E+00
          0                 2           2             2    2     1      -0.6352562505E-03       2   13    1        -0.3510532923E-01      0.9070406799E-01
          0                 3           1             2    2     1       0.4325858016E-04       2    2    1         0.2386456193E-02      0.6211556242E-02

    ------------------------------------------------
       NWT REQUIRED            3 OUTER ITERATIONS 
       AND A TOTAL OF          5 INNER ITERATIONS.
    ------------------------------------------------

 NO OUTPUT CONTROL FOR STRESS PERIOD    4   TIME STEP    6
 
 SOLVING FOR HEAD 
                                                   Max.-Head-Change                         Max.-Flux-Residual
  Residual-Control   Outer-Iter.   Inner-Iter.     Column Row Layer    Maximum-Head-Change  Column Row Layer    Maximum-Flux-Residual          L2-NORM 
          0                 1           2             2    2     1       0.6490822530E-02       2   13    1         0.3392610396E+00      0.8839147536E+00
          0                 2           2             2    2     1      -0.6313816190E-03       2    2    1        -0.3388280665E-01      0.8706815319E-01
          0                 3           1             2    2     1       0.4299473207E-04       2    2    1         0.2371796493E-02      0.5971830006E-02

    ------------------------------------------------
       NWT REQUIRED            3 OUTER ITERATIONS 
       AND A TOTAL OF          5 INNER ITERATIONS.
    ------------------------------------------------

 NO OUTPUT CONTROL FOR STRESS PERIOD    4   TIME STEP    7
 
 SOLVING FOR HEAD 
                                                   Max.-Head-Change                         Max.-Flux-Residual
  Residual-Control   Outer-Iter.   Inner-Iter.     Column Row Layer    Maximum-Head-Change  Column Row Layer    Maximum-Flux-Residual          L2-NORM 
          0                 1           2             2    2     1       0.6451627092E-02       2    2    1         0.3367662959E+00      0.8500672782E+00
          0                 2           2             2    2     1      -0.6275689446E-03       2    2    1        -0.3367673274E-01      0.8383086608E-01
          0                 3           1             2    2     1       0.4273510338E-04       2    2    1         0.2357371338E-02      0.5759244796E-02

    ------------------------------------------------
       NWT REQUIRED            3 OUTER ITERATIONS 
       AND A TOTAL OF          5 INNER ITERATIONS.
    ------------------------------------------------

 NO OUTPUT CONTROL FOR STRESS PERIOD    4   TIME STEP    8
 
 SOLVING FOR HEAD 
                                                   Max.-Head-Change                         Max.-Flux-Residual
  Residual-Control   Outer-Iter.   Inner-Iter.     Column Row Layer    Maximum-Head-Change  Column Row Layer    Maximum-Flux-Residual          L2-NORM 
          0                 1           2             2    2     1       0.6412885489E-02       2    2    1         0.3347295197E+00      0.8199149408E+00
          0                 2           2             2    2     1      -0.6238004161E-03       2    2    1        -0.3347305336E-01      0.8094974263E-01
          0                 3           1             2    2     1       0.4247848092E-04       2    2    1         0.2343113789E-02      0.5570021162E-02

    ------------------------------------------------
       NWT REQUIRED            3 OUTER ITERATIONS 
       AND A TOTAL OF          5 INNER ITERATIONS.
    ------------------------------------------------

 NO OUTPUT CONTROL FOR STRESS PERIOD    4   TIME STEP    9
 
 SOLVING FOR HEAD 
                                                   Max.-Head-Change                         Max.-Flux-Residual
  Residual-Control   Outer-Iter.   Inner-Iter.     Column Row Layer    Maximum-Head-Change  Column Row Layer    Maximum-Flux-Residual          L2-NORM 
          0                 1           2             2    2     1       0.6374676582E-02       2    2    1         0.3327208140E+00      0.7930510457E+00
          0                 2           2             2    2     1      -0.6200837050E-03       2    2    1        -0.3327218105E-01      0.7838179731E-01
          0                 3           1             2    2     1       0.4222538655E-04       2    2    1         0.2329052723E-02      0.5401332864E-02

    ------------------------------------------------
       NWT REQUIRED            3 OUTER ITERATIONS 
       AND A TOTAL OF          5 INNER ITERATIONS.
    ------------------------------------------------

 NO OUTPUT CONTROL FOR STRESS PERIOD    4   TIME STEP   10
 
 SOLVING FOR HEAD 
                                                   Max.-Head-Change                         Max.-Flux-Residual
  Residual-Control   Outer-Iter.   Inner-Iter.     Column Row Layer    Maximum-Head-Change  Column Row Layer    Maximum-Flux-Residual          L2-NORM 
          0                 1           2             2    2     1       0.6336905821E-02       2    2    1         0.3307351877E+00      0.7691021509E+00
          0                 2           2             2    2     1      -0.6164096143E-03       2    2    1        -0.3307361673E-01      0.7609322097E-01
          0                 3           1             2    2     1       0.4197519521E-04       2    2    1         0.2315153246E-02      0.5251157002E-02

    ------------------------------------------------
       NWT REQUIRED            3 OUTER ITERATIONS 
       AND A TOTAL OF          5 INNER ITERATIONS.
    ------------------------------------------------

 NO OUTPUT CONTROL FOR STRESS PERIOD    4   TIME STEP   11
 
 SOLVING FOR HEAD 
                                                   Max.-Head-Change                         Max.-Flux-Residual
  Residual-Control   Outer-Iter.   Inner-Iter.     Column Row Layer    Maximum-Head-Change  Column Row Layer    Maximum-Flux-Residual          L2-NORM 
          0                 1           2             2    2     1       0.6299652059E-02       2    2    1         0.3287768189E+00      0.7477304102E+00
          0                 2           2             2    2     1      -0.6127858143E-03       2    2    1        -0.3287777820E-01      0.7405035487E-01
          0                 3           1             2    2     1       0.4172842829E-04       2    2    1         0.2301444564E-02      0.5116889025E-02

    ------------------------------------------------
       NWT REQUIRED            3 OUTER ITERATIONS 
       AND A TOTAL OF          5 INNER ITERATIONS.
    ------------------------------------------------

 NO OUTPUT CONTROL FOR STRESS PERIOD    4   TIME STEP   12
 
 SOLVING FOR HEAD 
                                                   Max.-Head-Change                         Max.-Flux-Residual
  Residual-Control   Outer-Iter.   Inner-Iter.     Column Row Layer    Maximum-Head-Change  Column Row Layer    Maximum-Flux-Residual          L2-NORM 
          0                 1           2             2    2     1       0.6262907421E-02       2    2    1         0.3268452559E+00      0.7286364747E+00
          0                 2           2             2    2     1      -0.6092115387E-03       2    2    1        -0.3268462028E-01      0.7222558237E-01
          0                 3           1             2    2     1       0.4148503350E-04       2    2    1         0.2287923517E-02      0.4997141858E-02

    ------------------------------------------------
       NWT REQUIRED            3 OUTER ITERATIONS 
       AND A TOTAL OF          5 INNER ITERATIONS.
    ------------------------------------------------

 NO OUTPUT CONTROL FOR STRESS PERIOD    4   TIME STEP   13
 
 SOLVING FOR HEAD 
                                                   Max.-Head-Change                         Max.-Flux-Residual
  Residual-Control   Outer-Iter.   Inner-Iter.     Column Row Layer    Maximum-Head-Change  Column Row Layer    Maximum-Flux-Residual          L2-NORM 
          0                 1           2             2    2     1       0.6226664231E-02       2    2    1         0.3249400904E+00      0.7115570693E+00
          0                 2           2             2    2     1      -0.6056860407E-03       2    2    1        -0.3249410216E-01      0.7059352809E-01
          0                 3           1             2    2     1       0.4124496018E-04       2    2    1         0.2274587249E-02      0.4890516176E-02

    ------------------------------------------------
       NWT REQUIRED            3 OUTER ITERATIONS 
       AND A TOTAL OF          5 INNER ITERATIONS.
    ------------------------------------------------

 NO OUTPUT CONTROL FOR STRESS PERIOD    4   TIME STEP   14
 
 SOLVING FOR HEAD 
                                                   Max.-Head-Change                         Max.-Flux-Residual
  Residual-Control   Outer-Iter.   Inner-Iter.     Column Row Layer    Maximum-Head-Change  Column Row Layer    Maximum-Flux-Residual          L2-NORM 
          0                 1           2             2    2     1       0.6190827324E-02       2    2    1         0.3230563834E+00      0.6962436340E+00
          0                 2           2             2    2     1      -0.6022000640E-03       2    2    1        -0.3230572993E-01      0.6912729621E-01
          0                 3           1             2    2     1       0.4100757855E-04       2    2    1         0.2261401214E-02      0.4792843370E-02

    ------------------------------------------------
       NWT REQUIRED            3 OUTER ITERATIONS 
       AND A TOTAL OF          5 INNER ITERATIONS.
    ------------------------------------------------

 NO OUTPUT CONTROL FOR STRESS PERIOD    4   TIME STEP   15
 
 SOLVING FOR HEAD 
                                                   Max.-Head-Change                         Max.-Flux-Residual
  Residual-Control   Outer-Iter.   Inner-Iter.     Column Row Layer    Maximum-Head-Change  Column Row Layer    Maximum-Flux-Residual          L2-NORM 
          0                 1           2             2    2     1       0.6155477141E-02       2    2    1         0.3211982825E+00      0.6824902702E+00
          0                 2           2             2    2     1      -0.5987614321E-03       2    2    1        -0.3211991833E-01      0.6781030024E-01
          0                 3           1             2    2     1       0.4077342064E-04       2    2    1         0.2248394412E-02      0.4706177475E-02

    ------------------------------------------------
       NWT REQUIRED            3 OUTER ITERATIONS 
       AND A TOTAL OF          5 INNER ITERATIONS.
    ------------------------------------------------

 NO OUTPUT CONTROL FOR STRESS PERIOD    4   TIME STEP   16
 
 SOLVING FOR HEAD 
                                                   Max.-Head-Change                         Max.-Flux-Residual
  Residual-Control   Outer-Iter.   Inner-Iter.     Column Row Layer    Maximum-Head-Change  Column Row Layer    Maximum-Flux-Residual          L2-NORM 
          0                 1           2             2    2     1       0.6120606055E-02       2    2    1         0.3193654177E+00      0.6701116895E+00
          0                 2           2             2    2     1      -0.5953694037E-03       2    2    1        -0.3193663036E-01      0.6662589089E-01
          0                 3           1             2    2     1       0.4054243605E-04       2    2    1         0.2235564259E-02      0.4629801678E-02

    ------------------------------------------------
       NWT REQUIRED            3 OUTER ITERATIONS 
       AND A TOTAL OF          5 INNER ITERATIONS.
    ------------------------------------------------

 NO OUTPUT CONTROL FOR STRESS PERIOD    4   TIME STEP   17
 
 SOLVING FOR HEAD 
                                                   Max.-Head-Change                         Max.-Flux-Residual
  Residual-Control   Outer-Iter.   Inner-Iter.     Column Row Layer    Maximum-Head-Change  Column Row Layer    Maximum-Flux-Residual          L2-NORM 
          0                 1           2             2    2     1       0.6086206495E-02       2    2    1         0.3175573936E+00      0.6589393200E+00
          0                 2           2             2    2     1      -0.5920232429E-03       2    2    1        -0.3175582651E-01      0.6555231379E-01
          0                 3           1             2    2     1       0.4031457530E-04       2    2    1         0.2222907994E-02      0.4556948124E-02

    ------------------------------------------------
       NWT REQUIRED            3 OUTER ITERATIONS 
       AND A TOTAL OF          5 INNER ITERATIONS.
    ------------------------------------------------

 NO OUTPUT CONTROL FOR STRESS PERIOD    4   TIME STEP   18
 
 SOLVING FOR HEAD 
                                                   Max.-Head-Change                         Max.-Flux-Residual
  Residual-Control   Outer-Iter.   Inner-Iter.     Column Row Layer    Maximum-Head-Change  Column Row Layer    Maximum-Flux-Residual          L2-NORM 
          0                 1           2             2    2     1       0.6052184495E-02       2    2    1         0.3157692758E+00      0.6488234886E+00
          0                 2           2             2    2     1      -0.5887138089E-03       2    2    1        -0.3157701334E-01      0.6458058641E-01
          0                 3           1             2    2     1       0.4008921525E-04       2    2    1         0.2210391071E-02      0.4492733021E-02

    ------------------------------------------------
       NWT REQUIRED            3 OUTER ITERATIONS 
       AND A TOTAL OF          5 INNER ITERATIONS.
    ------------------------------------------------

 NO OUTPUT CONTROL FOR STRESS PERIOD    4   TIME STEP   19
 
 SOLVING FOR HEAD 
                                                   Max.-Head-Change                         Max.-Flux-Residual
  Residual-Control   Outer-Iter.   Inner-Iter.     Column Row Layer    Maximum-Head-Change  Column Row Layer    Maximum-Flux-Residual          L2-NORM 
          0                 1           2             2    2     1       0.6018620315E-02       2    2    1         0.3140052756E+00      0.6396470626E+00
          0                 2           2             2    2     1      -0.5854489082E-03       2    2    1        -0.3140061193E-01      0.6369838234E-01
          0                 3           1             2    2     1       0.3986688769E-04       2    2    1         0.2198042975E-02      0.4434810407E-02

    ------------------------------------------------
       NWT REQUIRED            3 OUTER ITERATIONS 
       AND A TOTAL OF          5 INNER ITERATIONS.
    ------------------------------------------------

 NO OUTPUT CONTROL FOR STRESS PERIOD    4   TIME STEP   20
 
 SOLVING FOR HEAD 
                                                   Max.-Head-Change                         Max.-Flux-Residual
  Residual-Control   Outer-Iter.   Inner-Iter.     Column Row Layer    Maximum-Head-Change  Column Row Layer    Maximum-Flux-Residual          L2-NORM 
          0                 1           2             2    2     1       0.5985506774E-02       2    2    1         0.3122650129E+00      0.6312924173E+00
          0                 2           2             2    2     1      -0.5822278434E-03       2    2    1        -0.3122658433E-01      0.6289354337E-01
          0                 3           1             2    2     1       0.3964754506E-04       2    2    1         0.2185861041E-02      0.4381077942E-02

    ------------------------------------------------
       NWT REQUIRED            3 OUTER ITERATIONS 
       AND A TOTAL OF          5 INNER ITERATIONS.
    ------------------------------------------------

 NO OUTPUT CONTROL FOR STRESS PERIOD    4   TIME STEP   21
 
 SOLVING FOR HEAD 
                                                   Max.-Head-Change                         Max.-Flux-Residual
  Residual-Control   Outer-Iter.   Inner-Iter.     Column Row Layer    Maximum-Head-Change  Column Row Layer    Maximum-Flux-Residual          L2-NORM 
          0                 1           2             2    2     1       0.5952837150E-02       2    2    1         0.3105481154E+00      0.6236601254E+00
          0                 2           2             2    2     1      -0.5790499604E-03       2    2    1        -0.3105489326E-01      0.6215769076E-01
          0                 3           1             2    2     1       0.3943114380E-04       2    2    1         0.2173842701E-02      0.4331811555E-02

    ------------------------------------------------
       NWT REQUIRED            3 OUTER ITERATIONS 
       AND A TOTAL OF          5 INNER ITERATIONS.
    ------------------------------------------------

 NO OUTPUT CONTROL FOR STRESS PERIOD    4   TIME STEP   22
 
 SOLVING FOR HEAD 
                                                   Max.-Head-Change                         Max.-Flux-Residual
  Residual-Control   Outer-Iter.   Inner-Iter.     Column Row Layer    Maximum-Head-Change  Column Row Layer    Maximum-Flux-Residual          L2-NORM 
          0                 1           2             2    2     1       0.5920517575E-02       2    2    1         0.3088496919E+00      0.6166713202E+00
          0                 2           2             2    2     1      -0.5759061275E-03       2    2    1        -0.3088504962E-01      0.6148321999E-01
          0                 3           1             2    2     1       0.3921706075E-04       2    2    1         0.2161953655E-02      0.4286693481E-02

    ------------------------------------------------
       NWT REQUIRED            3 OUTER ITERATIONS 
       AND A TOTAL OF          5 INNER ITERATIONS.
    ------------------------------------------------

 NO OUTPUT CONTROL FOR STRESS PERIOD    4   TIME STEP   23
 
 SOLVING FOR HEAD 
                                                   Max.-Head-Change                         Max.-Flux-Residual
  Residual-Control   Outer-Iter.   Inner-Iter.     Column Row Layer    Maximum-Head-Change  Column Row Layer    Maximum-Flux-Residual          L2-NORM 
          0                 1           2             2    2     1       0.5888629168E-02       2    2    1         0.3071739604E+00      0.6102388364E+00
          0                 2           2             2    2     1      -0.5728042355E-03       2    2    1        -0.3071747519E-01      0.6086136112E-01
          0                 3           1             2    2     1       0.3900583294E-04       2    2    1         0.2150223438E-02      0.4245543910E-02

    ------------------------------------------------
       NWT REQUIRED            3 OUTER ITERATIONS 
       AND A TOTAL OF          5 INNER ITERATIONS.
    ------------------------------------------------

 NO OUTPUT CONTROL FOR STRESS PERIOD    4   TIME STEP   24
 
 SOLVING FOR HEAD 
                                                   Max.-Head-Change                         Max.-Flux-Residual
  Residual-Control   Outer-Iter.   Inner-Iter.     Column Row Layer    Maximum-Head-Change  Column Row Layer    Maximum-Flux-Residual          L2-NORM 
          0                 1           2             2    2     1       0.5857164806E-02       2    2    1         0.3055205845E+00      0.6043100155E+00
          0                 2           2             2    2     1      -0.5697435924E-03       2    2    1        -0.3055213636E-01      0.6028620041E-01
          0                 3           1             2    2     1       0.3879741490E-04       2    2    1         0.2138649729E-02      0.4206783600E-02

    ------------------------------------------------
       NWT REQUIRED            3 OUTER ITERATIONS 
       AND A TOTAL OF          5 INNER ITERATIONS.
    ------------------------------------------------

 NO OUTPUT CONTROL FOR STRESS PERIOD    4   TIME STEP   25
 
 SOLVING FOR HEAD 
                                                   Max.-Head-Change                         Max.-Flux-Residual
  Residual-Control   Outer-Iter.   Inner-Iter.     Column Row Layer    Maximum-Head-Change  Column Row Layer    Maximum-Flux-Residual          L2-NORM 
          0                 1           2             2    2     1       0.5826118218E-02       2    2    1         0.3038891949E+00      0.5988161795E+00
          0                 2           2             2    2     1      -0.5667235885E-03       2    2    1        -0.3038899622E-01      0.5975252421E-01
          0                 3           1             2    2     1       0.3859176453E-04       2    2    1         0.2127229945E-02      0.4170742025E-02

    ------------------------------------------------
       NWT REQUIRED            3 OUTER ITERATIONS 
       AND A TOTAL OF          5 INNER ITERATIONS.
    ------------------------------------------------

 NO OUTPUT CONTROL FOR STRESS PERIOD    4   TIME STEP   26
 
 SOLVING FOR HEAD 
                                                   Max.-Head-Change                         Max.-Flux-Residual
  Residual-Control   Outer-Iter.   Inner-Iter.     Column Row Layer    Maximum-Head-Change  Column Row Layer    Maximum-Flux-Residual          L2-NORM 
          0                 1           2             2    2     1       0.5795396352E-02       2    2    1         0.3022749230E+00      0.5937235127E+00
          0                 2           2             2    2     1      -0.5637351706E-03       2    2    1        -0.3022756784E-01      0.5925790259E-01
          0                 3           1             2    2     1       0.3838826409E-04       2    2    1         0.2115929960E-02      0.4137728105E-02

    ------------------------------------------------
       NWT REQUIRED            3 OUTER ITERATIONS 
       AND A TOTAL OF          5 INNER ITERATIONS.
    ------------------------------------------------

 NO OUTPUT CONTROL FOR STRESS PERIOD    4   TIME STEP   27
 
 SOLVING FOR HEAD 
                                                   Max.-Head-Change                         Max.-Flux-Residual
  Residual-Control   Outer-Iter.   Inner-Iter.     Column Row Layer    Maximum-Head-Change  Column Row Layer    Maximum-Flux-Residual          L2-NORM 
          0                 1           2             2    2     1       0.5765079987E-02       2    2    1         0.3006820308E+00      0.5889711250E+00
          0                 2           2             2    2     1      -0.5607861975E-03       2    2    1        -0.3006827747E-01      0.5879524688E-01
          0                 3           1             2    2     1       0.3818745013E-04       2    2    1         0.2104779634E-02      0.4106588114E-02

    ------------------------------------------------
       NWT REQUIRED            3 OUTER ITERATIONS 
       AND A TOTAL OF          5 INNER ITERATIONS.
    ------------------------------------------------

 NO OUTPUT CONTROL FOR STRESS PERIOD    4   TIME STEP   28
 
 SOLVING FOR HEAD 
                                                   Max.-Head-Change                         Max.-Flux-Residual
  Residual-Control   Outer-Iter.   Inner-Iter.     Column Row Layer    Maximum-Head-Change  Column Row Layer    Maximum-Flux-Residual          L2-NORM 
          0                 1           2             2    2     1       0.5735163200E-02       2    2    1         0.2991101634E+00      0.5845326739E+00
          0                 2           2             2    2     1      -0.5578760929E-03       2    2    1        -0.2991108960E-01      0.5836197456E-01
          0                 3           1             2    2     1       0.3798928337E-04       2    2    1         0.2093776493E-02      0.4077035930E-02

    ------------------------------------------------
       NWT REQUIRED            3 OUTER ITERATIONS 
       AND A TOTAL OF          5 INNER ITERATIONS.
    ------------------------------------------------

 NO OUTPUT CONTROL FOR STRESS PERIOD    4   TIME STEP   29
 
 SOLVING FOR HEAD 
                                                   Max.-Head-Change                         Max.-Flux-Residual
  Residual-Control   Outer-Iter.   Inner-Iter.     Column Row Layer    Maximum-Head-Change  Column Row Layer    Maximum-Flux-Residual          L2-NORM 
          0                 1           2             2    2     1       0.4578099446E-02       2    2    1         0.2386164916E+00      0.5561601063E+00
          0                 2           2             2    2     1      -0.4453248773E-03       2    2    1        -0.2386169172E-01      0.5520662942E-01
          0                 3           1             2    2     1       0.3032496690E-04       2    2    1         0.1670318746E-02      0.3826959909E-02

    ------------------------------------------------
       NWT REQUIRED            3 OUTER ITERATIONS 
       AND A TOTAL OF          5 INNER ITERATIONS.
    ------------------------------------------------

 NO OUTPUT CONTROL FOR STRESS PERIOD    4   TIME STEP   30



 STREAM LISTING     PERIOD      4   STEP       30

 LAYER ROW COL. STREAM  RCH.  FLOW INTO     FLOW TO   FLOW OUT OF   OVRLND.     DIRECT     STREAM       STREAM     STREAM     STREAM   STREAMBED  STREAMBED
                SEG.NO.  NO.  STRM. RCH.    AQUIFER    STRM. RCH.    RUNOFF     PRECIP       ET          HEAD       DEPTH      WIDTH   CONDCTNC.   GRADIENT

   1    1    1     1     1    4.6685E+01  3.2585E-01   4.6359E+01  0.000E+00  0.000E+00  0.000E+00  1.09443E+03  1.378E+00  1.654E+01  7.443E-02  1.459E+00
   1    2    2     1     2    4.6359E+01  5.0484E-01   4.5855E+01  0.000E+00  0.000E+00  0.000E+00  1.08943E+03  1.375E+00  1.648E+01  1.154E-01  1.458E+00
   1    3    3     1     3    4.5855E+01  4.3074E-01   4.5424E+01  0.000E+00  0.000E+00  0.000E+00  1.08379E+03  1.372E+00  1.642E+01  9.852E-02  1.457E+00
   1    3    4     1     4    4.5424E+01  3.9680E-01   4.5027E+01  0.000E+00  0.000E+00  0.000E+00  1.07878E+03  1.369E+00  1.636E+01  9.082E-02  1.456E+00
   1    4    5     2     1    4.3027E+01  3.6413E-01   4.2663E+01  0.000E+00  0.000E+00  0.000E+00  1.07360E+03  1.668E+00  1.200E+01  7.800E-02  1.556E+00
   1    5    6     2     2    4.2663E+01  2.7965E-01   4.2383E+01  0.000E+00  0.000E+00  0.000E+00  1.06817E+03  1.661E+00  1.200E+01  6.000E-02  1.554E+00
   1    6    6     2     3    4.2383E+01  2.7926E-01   4.2104E+01  0.000E+00  0.000E+00  0.000E+00  1.06345E+03  1.654E+00  1.200E+01  6.000E-02  1.551E+00
   1    7    6     2     4    4.2104E+01  2.7886E-01   4.1825E+01  0.000E+00  0.000E+00  0.000E+00  1.05872E+03  1.648E+00  1.200E+01  6.000E-02  1.549E+00
   1    8    6     2     5    4.1825E+01  2.7847E-01   4.1547E+01  0.000E+00  0.000E+00  0.000E+00  1.05400E+03  1.641E+00  1.200E+01  6.000E-02  1.547E+00
   1    3    5     3     1    2.0000E+00  2.8252E-01   1.7175E+00  0.000E+00  0.000E+00  0.000E+00  1.07555E+03  1.909E+00  9.636E+00  7.227E-02  1.955E+00
   1    3    6     3     2    1.7175E+00  2.4905E-01   1.4684E+00  0.000E+00  0.000E+00  0.000E+00  1.07264E+03  1.727E+00  8.909E+00  6.682E-02  1.864E+00
   1    3    7     3     3    1.4684E+00  1.9718E-01   1.2712E+00  0.000E+00  0.000E+00  0.000E+00  1.06987E+03  1.555E+00  8.218E+00  5.547E-02  1.777E+00
   1    4    8     3     4    1.2712E+00  2.2567E-01   1.0456E+00  0.000E+00  0.000E+00  0.000E+00  1.06682E+03  1.364E+00  7.455E+00  6.709E-02  1.682E+00
   1    5    8     3     5    1.0456E+00  1.5790E-01   8.8768E-01  0.000E+00  0.000E+00  0.000E+00  1.06362E+03  1.164E+00  6.655E+00  4.991E-02  1.582E+00
   1    6    8     3     6    8.8768E-01  5.5980E-02   8.3170E-01  0.000E+00  0.000E+00  0.000E+00  1.06158E+03  1.036E+00  6.145E+00  1.844E-02  1.518E+00
   1    5   10     4     1    1.0000E+01  9.0919E-02   9.9091E+00  0.000E+00  0.000E+00  0.000E+00  1.07836E+03  6.368E-01  1.000E+01  2.500E-02  1.212E+00
   1    5    9     4     2    9.9091E+00  1.8158E-01   9.7275E+00  0.000E+00  0.000E+00  0.000E+00  1.07154E+03  6.315E-01  1.000E+01  5.000E-02  1.211E+00
   1    6    8     4     3    9.7275E+00  1.2689E-01   9.6006E+00  0.000E+00  0.000E+00  0.000E+00  1.06381E+03  6.256E-01  1.000E+01  3.500E-02  1.209E+00
   1    6    8     5     1    1.0432E+01  2.2686E-01   1.0205E+01  0.000E+00  0.000E+00  0.000E+00  1.05868E+03  6.790E-01  1.542E+01  6.166E-02  1.226E+00
   1    7    7     5     2    1.0205E+01  2.7894E-01   9.9265E+00  0.000E+00  0.000E+00  0.000E+00  1.05417E+03  6.732E-01  1.519E+01  7.594E-02  1.224E+00
   1    8    7     5     3    9.9265E+00  1.9221E-01   9.7343E+00  0.000E+00  0.000E+00  0.000E+00  1.04992E+03  6.676E-01  1.497E+01  5.241E-02  1.223E+00
   1    8    6     5     4    9.7343E+00  1.3577E-01   9.5985E+00  0.000E+00  0.000E+00  0.000E+00  1.04691E+03  6.637E-01  1.482E+01  3.706E-02  1.221E+00
   1    9    6     6     1    5.1145E+01  2.9237E-01   5.0853E+01  0.000E+00  0.000E+00  0.000E+00  1.04460E+03  1.873E+00  1.200E+01  6.000E-02  1.624E+00
   1   10    7     6     2    5.0853E+01  2.9199E-01   5.0561E+01  0.000E+00  0.000E+00  0.000E+00  1.04005E+03  1.866E+00  1.200E+01  6.000E-02  1.622E+00
   1   11    7     6     3    5.0561E+01  2.9160E-01   5.0269E+01  0.000E+00  0.000E+00  0.000E+00  1.03550E+03  1.860E+00  1.200E+01  6.000E-02  1.620E+00
   1   12    7     6     4    5.0269E+01  2.9121E-01   4.9978E+01  0.000E+00  0.000E+00  0.000E+00  1.03094E+03  1.854E+00  1.200E+01  6.000E-02  1.618E+00
   1   13    7     6     5    4.9978E+01  1.5094E-02   4.9963E+01  0.000E+00  0.000E+00  0.000E+00  1.02776E+03  1.850E+00  1.200E+01  2.400E-02  2.096E-01
   1   14    9     7     1    1.5000E+02  1.3358E+00   1.4866E+02  0.000E+00  0.000E+00  0.000E+00  1.03987E+03  2.288E+00  5.529E+01  5.593E-01  7.961E-01
   1   13    8     7     2    1.4866E+02  1.8278E+00   1.4684E+02  0.000E+00  0.000E+00  0.000E+00  1.03478E+03  2.279E+00  5.526E+01  6.148E-01  9.910E-01
   1   13    7     7     3    1.4684E+02  1.4295E+00   1.4541E+02  0.000E+00  0.000E+00  0.000E+00  1.02969E+03  2.271E+00  5.522E+01  5.585E-01  8.532E-01
   1   13    6     8     1    1.9537E+02  9.7231E-01   1.9440E+02  0.000E+00  0.000E+00  0.000E+00  1.02498E+03  3.107E+00  4.506E+01  4.591E-01  7.059E-01
   1   13    5     8     2    1.9440E+02  1.7876E-01   1.9422E+02  0.000E+00  0.000E+00  0.000E+00  1.01873E+03  3.104E+00  4.501E+01  4.586E-01  1.299E-01
   1   13    4     8     3    1.9422E+02 -2.6448E+00   1.9686E+02  0.000E+00  0.000E+00  0.000E+00  1.01249E+03  3.111E+00  4.511E+01  4.597E+00 -1.918E-01
   1   13    3     8     4    1.9686E+02 -3.8106E+00   2.0067E+02  0.000E+00  0.000E+00  0.000E+00  1.00626E+03  3.130E+00  4.539E+01  4.626E+00 -2.746E-01
   1   13    2     8     5    2.0067E+02 -2.7015E+00   2.0338E+02  0.000E+00  0.000E+00  0.000E+00  1.00002E+03  3.150E+00  4.567E+01  4.654E+00 -1.935E-01
   1   13    1     8     6    2.0338E+02 -2.0094E+00   2.0539E+02  0.000E+00  0.000E+00  0.000E+00  9.95038E+02  3.163E+00  4.587E+01  2.804E+00 -2.388E-01
   1    8    6     9     1    0.0000E+00  0.0000E+00   0.0000E+00  0.000E+00  0.000E+00  0.000E+00  1.07875E+03  0.000E+00  4.000E+00  0.000E+00  1.000E+00
   1    8    5     9     2    0.0000E+00  0.0000E+00   0.0000E+00  0.000E+00  0.000E+00  0.000E+00  1.07825E+03  0.000E+00  4.000E+00  0.000E+00  1.000E+00





UNSATURATED ZONE PACKAGE VOLUMETRIC BUDGET FOR  TIME STEP    30 STRESS PERIOD    4
  ------------------------------------------------------------------------------



     CUMULATIVE VOLUMES      L**3       RATES FOR THIS TIME STEP      L**3/T
     ------------------                 ------------------------

           IN:                                      IN:
           ---                                      ---
        INFILTRATION =    34848397.6743          INFILTRATION =           4.4075

          OUT:                                     OUT:
          ----                                     ----
              UZF ET =     5720249.5200                UZF ET =           0.7250
        UZF RECHARGE =       73224.0000          UZF RECHARGE =       0.0000E+00

            IN - OUT =    29054924.1543              IN - OUT =           3.6825

          STORAGE:                                 STORAGE:
          --------                                 --------
      STORAGE CHANGE =    29054923.9749        STORAGE CHANGE =           3.6825

 PERCENT DISCREPANCY IS DIFFERENCE BETWEEN IN-OUT MINUS CHANGE IN STORAGE
 DIVIDED BY THE AVERAGE OF IN AND OUT TIMES 100

 PERCENT DISCREPANCY =           0.00     PERCENT DISCREPANCY =           0.00






1
  VOLUMETRIC BUDGET FOR ENTIRE MODEL AT END OF TIME STEP   30, STRESS PERIOD   4
  ------------------------------------------------------------------------------

     CUMULATIVE VOLUMES      L**3       RATES FOR THIS TIME STEP      L**3/T
     ------------------                 ------------------------

           IN:                                      IN:
           ---                                      ---
               AG WELLS  =           0.0000                 AG WELLS  =           0.0000
      DIVERSION SEGMENTS =           0.0000        DIVERSION SEGMENTS =           0.0000
           GW IRRIGATION =           0.0000             GW IRRIGATION =           0.0000
           SW IRRIGATION =           0.0000             SW IRRIGATION =           0.0000
        SYSTEM LOSSES GW =           0.0000          SYSTEM LOSSES GW =           0.0000
        SYSTEM LOSSES SW =           0.0000          SYSTEM LOSSES SW =           0.0000

                TOTAL IN =           0.0000                  TOTAL IN =           0.0000

          OUT:                                     OUT:
          ----                                     ----
               AG WELLS  =           0.0000                 AG WELLS  =           0.0000
      DIVERSION SEGMENTS =           0.0000        DIVERSION SEGMENTS =           0.0000
           GW IRRIGATION =           0.0000             GW IRRIGATION =           0.0000
           SW IRRIGATION =           0.0000             SW IRRIGATION =           0.0000
        SYSTEM LOSSES GW =           0.0000          SYSTEM LOSSES GW =           0.0000
        SYSTEM LOSSES SW =           0.0000          SYSTEM LOSSES SW =           0.0000

               TOTAL OUT =           0.0000                 TOTAL OUT =           0.0000

                IN - OUT =           0.0000                  IN - OUT =           0.0000

     PERCENT DISCREPANCY =           0.00         PERCENT DISCREPANCY =           0.00



1
  VOLUMETRIC BUDGET FOR ENTIRE MODEL AT END OF TIME STEP   30, STRESS PERIOD   4
  ------------------------------------------------------------------------------

     CUMULATIVE VOLUMES      L**3       RATES FOR THIS TIME STEP      L**3/T
     ------------------                 ------------------------

           IN:                                      IN:
           ---                                      ---
             STORAGE     =     4346518.5000               STORAGE     =           0.9330
       CONSTANT HEAD     =           0.0000         CONSTANT HEAD     =           0.0000
     HEAD DEP BOUNDS     =     2278904.5000       HEAD DEP BOUNDS     =           0.2858
      STREAM LEAKAGE     =    95929944.0000        STREAM LEAKAGE     =          12.4664
        UZF RECHARGE     =       73223.9531          UZF RECHARGE     =           0.0000
               GW ET     =           0.0000                 GW ET     =           0.0000
     SURFACE LEAKAGE     =           0.0000       SURFACE LEAKAGE     =           0.0000
           AG WELLS      =           0.0000             AG WELLS      =           0.0000

                TOTAL IN =   102628592.0000                  TOTAL IN =          13.6851

          OUT:                                     OUT:
          ----                                     ----
             STORAGE     =    18126112.0000               STORAGE     =           2.2245
       CONSTANT HEAD     =           0.0000         CONSTANT HEAD     =           0.0000
     HEAD DEP BOUNDS     =     2316472.5000       HEAD DEP BOUNDS     =           0.2947
      STREAM LEAKAGE     =    82189896.0000        STREAM LEAKAGE     =          11.1663
        UZF RECHARGE     =           0.0000          UZF RECHARGE     =           0.0000
               GW ET     =       6.7177E-07                 GW ET     =       2.6349E-13
     SURFACE LEAKAGE     =           0.0000       SURFACE LEAKAGE     =           0.0000
           AG WELLS      =           0.0000             AG WELLS      =           0.0000

               TOTAL OUT =   102632480.0000                 TOTAL OUT =          13.6855

                IN - OUT =       -3888.0000                  IN - OUT =      -3.6621E-04

     PERCENT DISCREPANCY =          -0.00         PERCENT DISCREPANCY =          -0.00






         TIME SUMMARY AT END OF TIME STEP   30 IN STRESS PERIOD    4
                    SECONDS     MINUTES      HOURS       DAYS        YEARS
                    -----------------------------------------------------------
   TIME STEP LENGTH  87667.      1461.1      24.352      1.0147     2.77799E-03
 STRESS PERIOD TIME 2.63000E+06  43833.      730.56      30.440     8.33397E-02
         TOTAL TIME 7.97639E+06 1.32940E+05  2215.7      92.319     0.25276    
1
1
                            STRESS PERIOD NO.    5, LENGTH =   2630000.    
                            -----------------------------------------------

                              NUMBER OF TIME STEPS =    30

                               MULTIPLIER FOR DELT =     1.000

                            INITIAL TIME STEP SIZE =   87666.66    

 REUSING NON-PARAMETER GHB CELLS FROM LAST STRESS PERIOD

      2 GHB CELLS

 REUSING STREAM SEGMENT DATA FROM LAST STRESS PERIOD



            AREAL INFILTRATION RATE
 READING ON UNIT   19 WITH FORMAT: (10F4.0)            

            1           2           3           4           5           6           7           8           9          10
 ........................................................................................................................
   1   1.2000E-09   0.000       0.000       0.000       0.000       0.000       0.000       0.000       0.000       0.000    
   2   2.1000E-09  2.0000E-09  8.0000E-10  8.5000E-09   0.000       0.000       0.000       0.000       0.000       0.000    
   3   5.0000E-10  1.1000E-09  8.8000E-09  5.5000E-09   0.000       0.000       0.000       0.000       0.000       0.000    
   4   8.5000E-09  1.1000E-09  1.1000E-09  1.1000E-09  2.0000E-09   0.000       0.000       0.000       0.000       0.000    
   5   8.5000E-09  1.1000E-09  1.1000E-09  1.1000E-09  1.1000E-09   0.000       0.000       0.000       0.000       0.000    
   6   8.5000E-09  5.2000E-09  2.1000E-09  1.1000E-09  1.5000E-09   0.000       0.000       0.000       0.000       0.000    
   7   8.5000E-09  5.2000E-09  2.1000E-09  1.2000E-09  2.0000E-09   0.000       0.000       0.000       0.000       0.000    
   8   5.0000E-10  5.2000E-09  2.1000E-09  1.2000E-09  5.0000E-09   0.000       0.000       0.000       0.000       0.000    
   9   5.0000E-10  5.2000E-09  2.1000E-09  1.2000E-09  5.0000E-09   0.000       0.000       0.000       0.000       0.000    
  10   5.0000E-10  5.2000E-09  2.1000E-09  1.2000E-09  5.8000E-09   0.000       0.000       0.000       0.000       0.000    
  11   1.0000E-10  1.1000E-09  1.1000E-09  1.2000E-09  5.0000E-09   0.000       0.000       0.000       0.000       0.000    
  12   1.1000E-09  1.1000E-09  1.1000E-09  1.1000E-09  2.0000E-09   0.000       0.000       0.000       0.000       0.000    
  13   1.1000E-09  2.2000E-09  2.2000E-09  2.1000E-09  1.0000E-09   0.000       0.000       0.000       0.000       0.000    
  14   2.0000E-10  5.5000E-09  5.5000E-09  5.2000E-09  1.0000E-09   0.000       0.000       0.000       0.000       0.000    
  15    0.000      8.8000E-09  8.8000E-09   0.000       0.000       0.000       0.000       0.000       0.000       0.000    

                  ET RATE =  2.500000E-08

 USING ET EXTINCTION DEPTH FROM PREVIOUS STRESS PERIOD. CURRENT PERIOD IS:       5

 USING EXTINCTION WATER CONTENT FROM PREVIOUS STRESS PERIOD. CURRENT PERIOD IS:       5

 USING AIR ENTRY PRESSURE FROM PREVIOUS STRESS PERIOD. CURRENT PERIOD IS:       5

 USING ROOT PRESSURE HEAD FROM PREVIOUS STRESS PERIOD. CURRENT PERIOD IS:       5

 USING ROOT ACTIVITY FROM PREVIOUS STRESS PERIOD. CURRENT PERIOD IS:       5

 PROCESSING AG STRESS PERIOD DATA

 READING AG STRESS PERIOD DATA

 READING IRRIGATION SEGMENT

 READING IRRIGATION WELL

 READING SUPPLEMENTAL WELL

 END PROCESSING AG STRESS PERIOD DATA OPTIONS
 
 SOLVING FOR HEAD 
                                                   Max.-Head-Change                         Max.-Flux-Residual
  Residual-Control   Outer-Iter.   Inner-Iter.     Column Row Layer    Maximum-Head-Change  Column Row Layer    Maximum-Flux-Residual          L2-NORM 
          0                 1           2             4   13     1      -0.1222813036E-01       4   13    1        -0.7025295053E+00      0.1224289675E+01
          0                 2           2             4   13     1       0.1179490981E-02       4   13    1         0.6967359775E-01      0.1194373170E+00
          0                 3           1             4   13     1      -0.7938327091E-04       4   13    1        -0.4821302005E-02      0.8078682367E-02

    ------------------------------------------------
       NWT REQUIRED            3 OUTER ITERATIONS 
       AND A TOTAL OF          5 INNER ITERATIONS.
    ------------------------------------------------

 NO OUTPUT CONTROL FOR STRESS PERIOD    5   TIME STEP    1
 
 SOLVING FOR HEAD 
                                                   Max.-Head-Change                         Max.-Flux-Residual
  Residual-Control   Outer-Iter.   Inner-Iter.     Column Row Layer    Maximum-Head-Change  Column Row Layer    Maximum-Flux-Residual          L2-NORM 
          0                 1           2             4   13     1      -0.1106553417E-01       4   13    1        -0.6354762518E+00      0.1130136259E+01
          0                 2           2             4   13     1       0.7079294085E-03       4   13    1         0.4184002923E-01      0.7539624065E-01
          0                 3           2             4   13     1      -0.2165074270E-03       4   13    1        -0.1312032916E-01      0.2424484929E-01
          0                 4           2             4   13     1      -0.4490785847E-03       4   13    1        -0.2718749715E-01      0.4837970507E-01
          0                 5           1             4   13     1       0.1746264386E-04       4   13    1         0.1087100686E-02      0.1959207780E-02

    ------------------------------------------------
       NWT REQUIRED            5 OUTER ITERATIONS 
       AND A TOTAL OF          9 INNER ITERATIONS.
    ------------------------------------------------

 OUTPUT CONTROL FOR STRESS PERIOD    5   TIME STEP    2
    PRINT BUDGET
    SAVE BUDGET
 UBDSV1 SAVING "         STORAGE" ON UNIT 102 AT TIME STEP  2, STRESS PERIOD   5
 UBDSV2 SAVING "   CONSTANT HEAD" ON UNIT 102 AT TIME STEP  2, STRESS PERIOD   5
 UBDSV1 SAVING "FLOW RIGHT FACE " ON UNIT 102 AT TIME STEP  2, STRESS PERIOD   5
 UBDSV1 SAVING "FLOW FRONT FACE " ON UNIT 102 AT TIME STEP  2, STRESS PERIOD   5

  HEAD DEP BOUNDS   PERIOD    5   STEP     2
 BOUNDARY      1   LAYER   1   ROW    13   COL     1   RATE   -0.294260    
 BOUNDARY      2   LAYER   1   ROW    14   COL     9   RATE    0.285759    



 STREAM LISTING     PERIOD      5   STEP        2

 LAYER ROW COL. STREAM  RCH.  FLOW INTO     FLOW TO   FLOW OUT OF   OVRLND.     DIRECT     STREAM       STREAM     STREAM     STREAM   STREAMBED  STREAMBED
                SEG.NO.  NO.  STRM. RCH.    AQUIFER    STRM. RCH.    RUNOFF     PRECIP       ET          HEAD       DEPTH      WIDTH   CONDCTNC.   GRADIENT

   1    1    1     1     1    2.1000E+01  2.2591E-01   2.0774E+01  0.000E+00  0.000E+00  0.000E+00  1.09416E+03  1.115E+00  1.220E+01  5.490E-02  1.372E+00
   1    2    2     1     2    2.0774E+01  3.4916E-01   2.0425E+01  0.000E+00  0.000E+00  0.000E+00  1.08917E+03  1.110E+00  1.214E+01  8.495E-02  1.370E+00
   1    3    3     1     3    2.0425E+01  2.9709E-01   2.0128E+01  0.000E+00  0.000E+00  0.000E+00  1.08352E+03  1.105E+00  1.206E+01  7.238E-02  1.368E+00
   1    3    4     1     4    2.0128E+01  2.7299E-01   1.9855E+01  0.000E+00  0.000E+00  0.000E+00  1.07851E+03  1.100E+00  1.200E+01  6.659E-02  1.367E+00
   1    4    5     2     1    1.7855E+01  3.1056E-01   1.7544E+01  0.000E+00  0.000E+00  0.000E+00  1.07292E+03  9.816E-01  1.200E+01  7.800E-02  1.327E+00
   1    5    6     2     2    1.7544E+01  2.3834E-01   1.7306E+01  0.000E+00  0.000E+00  0.000E+00  1.06748E+03  9.724E-01  1.200E+01  6.000E-02  1.324E+00
   1    6    6     2     3    1.7306E+01  2.3786E-01   1.7068E+01  0.000E+00  0.000E+00  0.000E+00  1.06276E+03  9.644E-01  1.200E+01  6.000E-02  1.321E+00
   1    7    6     2     4    1.7068E+01  2.3738E-01   1.6831E+01  0.000E+00  0.000E+00  0.000E+00  1.05803E+03  9.564E-01  1.200E+01  6.000E-02  1.319E+00
   1    8    6     2     5    1.6831E+01  2.3690E-01   1.6594E+01  0.000E+00  0.000E+00  0.000E+00  1.05331E+03  9.483E-01  1.200E+01  6.000E-02  1.316E+00
   1    3    5     3     1    2.0000E+00  2.8252E-01   1.7175E+00  0.000E+00  0.000E+00  0.000E+00  1.07555E+03  1.909E+00  9.636E+00  7.227E-02  1.955E+00
   1    3    6     3     2    1.7175E+00  2.4905E-01   1.4684E+00  0.000E+00  0.000E+00  0.000E+00  1.07264E+03  1.727E+00  8.909E+00  6.682E-02  1.864E+00
   1    3    7     3     3    1.4684E+00  1.9718E-01   1.2712E+00  0.000E+00  0.000E+00  0.000E+00  1.06987E+03  1.555E+00  8.218E+00  5.547E-02  1.777E+00
   1    4    8     3     4    1.2712E+00  2.2567E-01   1.0456E+00  0.000E+00  0.000E+00  0.000E+00  1.06682E+03  1.364E+00  7.455E+00  6.709E-02  1.682E+00
   1    5    8     3     5    1.0456E+00  1.5790E-01   8.8768E-01  0.000E+00  0.000E+00  0.000E+00  1.06362E+03  1.164E+00  6.655E+00  4.991E-02  1.582E+00
   1    6    8     3     6    8.8768E-01  5.5980E-02   8.3170E-01  0.000E+00  0.000E+00  0.000E+00  1.06158E+03  1.036E+00  6.145E+00  1.844E-02  1.518E+00
   1    5   10     4     1    1.0000E+01  9.0919E-02   9.9091E+00  0.000E+00  0.000E+00  0.000E+00  1.07836E+03  6.368E-01  1.000E+01  2.500E-02  1.212E+00
   1    5    9     4     2    9.9091E+00  1.8158E-01   9.7275E+00  0.000E+00  0.000E+00  0.000E+00  1.07154E+03  6.315E-01  1.000E+01  5.000E-02  1.211E+00
   1    6    8     4     3    9.7275E+00  1.2689E-01   9.6006E+00  0.000E+00  0.000E+00  0.000E+00  1.06381E+03  6.256E-01  1.000E+01  3.500E-02  1.209E+00
   1    6    8     5     1    1.0432E+01  2.2686E-01   1.0205E+01  0.000E+00  0.000E+00  0.000E+00  1.05868E+03  6.790E-01  1.542E+01  6.166E-02  1.226E+00
   1    7    7     5     2    1.0205E+01  2.7894E-01   9.9265E+00  0.000E+00  0.000E+00  0.000E+00  1.05417E+03  6.732E-01  1.519E+01  7.594E-02  1.224E+00
   1    8    7     5     3    9.9265E+00  1.9221E-01   9.7343E+00  0.000E+00  0.000E+00  0.000E+00  1.04992E+03  6.676E-01  1.497E+01  5.241E-02  1.223E+00
   1    8    6     5     4    9.7343E+00  1.3577E-01   9.5985E+00  0.000E+00  0.000E+00  0.000E+00  1.04691E+03  6.637E-01  1.482E+01  3.706E-02  1.221E+00
   1    9    6     6     1    2.3357E+01  2.5011E-01   2.3107E+01  0.000E+00  0.000E+00  0.000E+00  1.04390E+03  1.168E+00  1.200E+01  6.000E-02  1.389E+00
   1   10    7     6     2    2.3107E+01  2.4966E-01   2.2858E+01  0.000E+00  0.000E+00  0.000E+00  1.03934E+03  1.161E+00  1.200E+01  6.000E-02  1.387E+00
   1   11    7     6     3    2.2858E+01  2.4920E-01   2.2608E+01  0.000E+00  0.000E+00  0.000E+00  1.03479E+03  1.153E+00  1.200E+01  6.000E-02  1.384E+00
   1   12    7     6     4    2.2608E+01  2.4875E-01   2.2360E+01  0.000E+00  0.000E+00  0.000E+00  1.03024E+03  1.146E+00  1.200E+01  6.000E-02  1.382E+00
   1   13    7     6     5    2.2360E+01 -1.9071E-02   2.2379E+01  0.000E+00  0.000E+00  0.000E+00  1.02705E+03  1.142E+00  1.200E+01  2.400E-01 -2.649E-02
   1   14    9     7     1    1.5000E+02  1.3358E+00   1.4866E+02  0.000E+00  0.000E+00  0.000E+00  1.03987E+03  2.288E+00  5.529E+01  5.593E-01  7.961E-01
   1   13    8     7     2    1.4866E+02  1.8275E+00   1.4684E+02  0.000E+00  0.000E+00  0.000E+00  1.03478E+03  2.279E+00  5.526E+01  6.148E-01  9.909E-01
   1   13    7     7     3    1.4684E+02  1.4292E+00   1.4541E+02  0.000E+00  0.000E+00  0.000E+00  1.02969E+03  2.271E+00  5.522E+01  5.585E-01  8.531E-01
   1   13    6     8     1    1.6779E+02  8.4480E-01   1.6694E+02  0.000E+00  0.000E+00  0.000E+00  1.02481E+03  2.935E+00  4.256E+01  4.337E-01  6.493E-01
   1   13    5     8     2    1.6694E+02  9.4900E-02   1.6685E+02  0.000E+00  0.000E+00  0.000E+00  1.01856E+03  2.932E+00  4.251E+01  4.332E-01  7.302E-02
   1   13    4     8     3    1.6685E+02 -3.1411E+00   1.6999E+02  0.000E+00  0.000E+00  0.000E+00  1.01232E+03  2.942E+00  4.266E+01  4.347E+00 -2.409E-01
   1   13    3     8     4    1.6999E+02 -4.2445E+00   1.7423E+02  0.000E+00  0.000E+00  0.000E+00  1.00609E+03  2.966E+00  4.301E+01  4.382E+00 -3.228E-01
   1   13    2     8     5    1.7423E+02 -3.1752E+00   1.7741E+02  0.000E+00  0.000E+00  0.000E+00  9.99865E+02  2.990E+00  4.335E+01  4.418E+00 -2.396E-01
   1   13    1     8     6    1.7741E+02 -2.2970E+00   1.7970E+02  0.000E+00  0.000E+00  0.000E+00  9.94882E+02  3.007E+00  4.360E+01  2.666E+00 -2.872E-01
   1    8    6     9     1    2.8349E+00  0.0000E+00   2.8349E+00  0.000E+00  0.000E+00  0.000E+00  1.07981E+03  1.064E+00  4.000E+00  0.000E+00  1.355E+00
   1    8    5     9     2    2.8349E+00  0.0000E+00   2.8349E+00  0.000E+00  0.000E+00  0.000E+00  1.07931E+03  1.064E+00  4.000E+00  0.000E+00  1.355E+00



 UBDSV3 SAVING "           GW ET" ON UNIT  61 AT TIME STEP  2, STRESS PERIOD   5
 UBDSV3 SAVING "    UZF RECHARGE" ON UNIT  61 AT TIME STEP  2, STRESS PERIOD   5
 UBDSV3 SAVING " SURFACE LEAKAGE" ON UNIT  61 AT TIME STEP  2, STRESS PERIOD   5
 UBDSV3 SAVING "       HORT+DUNN" ON UNIT  61 AT TIME STEP  2, STRESS PERIOD   5
 UBDSV3 SAVING "  STORAGE CHANGE" ON UNIT  61 AT TIME STEP  2, STRESS PERIOD   5


UNSATURATED ZONE PACKAGE VOLUMETRIC BUDGET FOR  TIME STEP     2 STRESS PERIOD    5
  ------------------------------------------------------------------------------



     CUMULATIVE VOLUMES      L**3       RATES FOR THIS TIME STEP      L**3/T
     ------------------                 ------------------------

           IN:                                      IN:
           ---                                      ---
        INFILTRATION =    35869712.5740          INFILTRATION =           7.2425

          OUT:                                     OUT:
          ----                                     ----
              UZF ET =    11112462.8755                UZF ET =          25.2617
        UZF RECHARGE =       73224.0000          UZF RECHARGE =       0.0000E+00

            IN - OUT =    24684025.6985              IN - OUT =         -18.0192

          STORAGE:                                 STORAGE:
          --------                                 --------
      STORAGE CHANGE =    24684025.4227        STORAGE CHANGE =         -18.0192

 PERCENT DISCREPANCY IS DIFFERENCE BETWEEN IN-OUT MINUS CHANGE IN STORAGE
 DIVIDED BY THE AVERAGE OF IN AND OUT TIMES 100

 PERCENT DISCREPANCY =           0.00     PERCENT DISCREPANCY =           0.00






 

            AG WELLS      PERIOD    5   STEP   2
 AG WELL      1   LAYER   1   ROW     6   COL     4   RATE     0.00000    
 AG WELL      2   LAYER   1   ROW     6   COL     5   RATE     0.00000    
 AG WELL      3   LAYER   1   ROW     7   COL     4   RATE     0.00000    
 AG WELL      4   LAYER   1   ROW     7   COL     5   RATE     0.00000    
 AG WELL      5   LAYER   1   ROW     8   COL     4   RATE     0.00000    
 AG WELL      6   LAYER   1   ROW     8   COL     5   RATE     0.00000    
 
 

   DIVERSION SEGMENTS     PERIOD    5   STEP   2
 SEGMENT      9   RATE     2.83492    
 
 

        SW IRRIGATION     PERIOD    5   STEP   2
 SEGMENT      9   ROW     6   COL     4   RATE    0.472497    
 SEGMENT      9   ROW     6   COL     5   RATE    0.472497    
 SEGMENT      9   ROW     7   COL     4   RATE    0.472497    
 SEGMENT      9   ROW     7   COL     5   RATE    0.472497    
 SEGMENT      9   ROW     8   COL     4   RATE    0.472497    
 SEGMENT      9   ROW     8   COL     5   RATE    0.472497    
 
 

        GW IRRIGATION     PERIOD    5   STEP   2
 AG WELL      1   ROW     6   COL     4   RATE     0.00000    
 AG WELL      2   ROW     6   COL     5   RATE     0.00000    
 AG WELL      3   ROW     7   COL     4   RATE     0.00000    
 AG WELL      4   ROW     7   COL     5   RATE     0.00000    
 AG WELL      5   ROW     8   COL     4   RATE     0.00000    
 AG WELL      6   ROW     8   COL     5   RATE     0.00000    
 
1
  VOLUMETRIC BUDGET FOR ENTIRE MODEL AT END OF TIME STEP    2, STRESS PERIOD   5
  ------------------------------------------------------------------------------

     CUMULATIVE VOLUMES      L**3       RATES FOR THIS TIME STEP      L**3/T
     ------------------                 ------------------------

           IN:                                      IN:
           ---                                      ---
               AG WELLS  =           0.0000                 AG WELLS  =           0.0000
      DIVERSION SEGMENTS =      248528.3125        DIVERSION SEGMENTS =           2.8349
           GW IRRIGATION =           0.0000             GW IRRIGATION =           0.0000
           SW IRRIGATION =           0.0000             SW IRRIGATION =           0.0000
        SYSTEM LOSSES GW =           0.0000          SYSTEM LOSSES GW =           0.0000
        SYSTEM LOSSES SW =           0.0000          SYSTEM LOSSES SW =           0.0000

                TOTAL IN =      248528.3125                  TOTAL IN =           2.8349

          OUT:                                     OUT:
          ----                                     ----
               AG WELLS  =           0.0000                 AG WELLS  =           0.0000
      DIVERSION SEGMENTS =           0.0000        DIVERSION SEGMENTS =           0.0000
           GW IRRIGATION =           0.0000             GW IRRIGATION =           0.0000
           SW IRRIGATION =      248533.2656             SW IRRIGATION =           2.8350
        SYSTEM LOSSES GW =           0.0000          SYSTEM LOSSES GW =           0.0000
        SYSTEM LOSSES SW =           0.0000          SYSTEM LOSSES SW =           0.0000

               TOTAL OUT =      248533.2656                 TOTAL OUT =           2.8350

                IN - OUT =          -4.9531                  IN - OUT =      -5.6505E-05

     PERCENT DISCREPANCY =          -0.00         PERCENT DISCREPANCY =          -0.00



1
  VOLUMETRIC BUDGET FOR ENTIRE MODEL AT END OF TIME STEP    2, STRESS PERIOD   5
  ------------------------------------------------------------------------------

     CUMULATIVE VOLUMES      L**3       RATES FOR THIS TIME STEP      L**3/T
     ------------------                 ------------------------

           IN:                                      IN:
           ---                                      ---
             STORAGE     =     4836998.5000               STORAGE     =           2.8211
       CONSTANT HEAD     =           0.0000         CONSTANT HEAD     =           0.0000
     HEAD DEP BOUNDS     =     2329007.5000       HEAD DEP BOUNDS     =           0.2858
      STREAM LEAKAGE     =    97921408.0000        STREAM LEAKAGE     =          11.3376
        UZF RECHARGE     =       73223.9531          UZF RECHARGE     =           0.0000
               GW ET     =           0.0000                 GW ET     =           0.0000
     SURFACE LEAKAGE     =           0.0000       SURFACE LEAKAGE     =           0.0000
           AG WELLS      =           0.0000             AG WELLS      =           0.0000

                TOTAL IN =   105160640.0000                  TOTAL IN =          14.4444

          OUT:                                     OUT:
          ----                                     ----
             STORAGE     =    18354722.0000               STORAGE     =           1.2734
       CONSTANT HEAD     =           0.0000         CONSTANT HEAD     =           0.0000
     HEAD DEP BOUNDS     =     2368085.2500       HEAD DEP BOUNDS     =           0.2943
      STREAM LEAKAGE     =    84441688.0000        STREAM LEAKAGE     =          12.8769
        UZF RECHARGE     =           0.0000          UZF RECHARGE     =           0.0000
               GW ET     =       7.1918E-06                 GW ET     =       6.6621E-11
     SURFACE LEAKAGE     =           0.0000       SURFACE LEAKAGE     =           0.0000
           AG WELLS      =           0.0000             AG WELLS      =           0.0000

               TOTAL OUT =   105164496.0000                 TOTAL OUT =          14.4445

                IN - OUT =       -3856.0000                  IN - OUT =      -1.0872E-04

     PERCENT DISCREPANCY =          -0.00         PERCENT DISCREPANCY =          -0.00






         TIME SUMMARY AT END OF TIME STEP    2 IN STRESS PERIOD    5
                    SECONDS     MINUTES      HOURS       DAYS        YEARS
                    -----------------------------------------------------------
   TIME STEP LENGTH  87667.      1461.1      24.352      1.0147     2.77799E-03
 STRESS PERIOD TIME 1.75333E+05  2922.2      48.704      2.0293     5.55598E-03
         TOTAL TIME 8.15173E+06 1.35862E+05  2264.4      94.349     0.25831    
1
 
 SOLVING FOR HEAD 
                                                   Max.-Head-Change                         Max.-Flux-Residual
  Residual-Control   Outer-Iter.   Inner-Iter.     Column Row Layer    Maximum-Head-Change  Column Row Layer    Maximum-Flux-Residual          L2-NORM 
          0                 1           2             2   13     1      -0.1001673783E-01       4   13    1        -0.5698590675E+00      0.1037262143E+01
          0                 2           2             4   13     1       0.5738157765E-03       4   13    1         0.3390226764E-01      0.6446649167E-01
          0                 3           2             4   13     1      -0.2737074566E-03       4   13    1        -0.1658238127E-01      0.3064065314E-01
          0                 4           2             4   13     1      -0.4370688112E-03       4   13    1        -0.2646252164E-01      0.4705702639E-01
          0                 5           1             2   13     1      -0.1064541234E-04       2   13    1        -0.6328933696E-03      0.1101207193E-02

    ------------------------------------------------
       NWT REQUIRED            5 OUTER ITERATIONS 
       AND A TOTAL OF          9 INNER ITERATIONS.
    ------------------------------------------------

 OUTPUT CONTROL FOR STRESS PERIOD    5   TIME STEP    3
    PRINT BUDGET
    SAVE BUDGET
 UBDSV1 SAVING "         STORAGE" ON UNIT 102 AT TIME STEP  3, STRESS PERIOD   5
 UBDSV2 SAVING "   CONSTANT HEAD" ON UNIT 102 AT TIME STEP  3, STRESS PERIOD   5
 UBDSV1 SAVING "FLOW RIGHT FACE " ON UNIT 102 AT TIME STEP  3, STRESS PERIOD   5
 UBDSV1 SAVING "FLOW FRONT FACE " ON UNIT 102 AT TIME STEP  3, STRESS PERIOD   5

  HEAD DEP BOUNDS   PERIOD    5   STEP     3
 BOUNDARY      1   LAYER   1   ROW    13   COL     1   RATE   -0.294048    
 BOUNDARY      2   LAYER   1   ROW    14   COL     9   RATE    0.285760    



 STREAM LISTING     PERIOD      5   STEP        3

 LAYER ROW COL. STREAM  RCH.  FLOW INTO     FLOW TO   FLOW OUT OF   OVRLND.     DIRECT     STREAM       STREAM     STREAM     STREAM   STREAMBED  STREAMBED
                SEG.NO.  NO.  STRM. RCH.    AQUIFER    STRM. RCH.    RUNOFF     PRECIP       ET          HEAD       DEPTH      WIDTH   CONDCTNC.   GRADIENT

   1    1    1     1     1    2.1000E+01  2.2591E-01   2.0774E+01  0.000E+00  0.000E+00  0.000E+00  1.09416E+03  1.115E+00  1.220E+01  5.490E-02  1.372E+00
   1    2    2     1     2    2.0774E+01  3.4916E-01   2.0425E+01  0.000E+00  0.000E+00  0.000E+00  1.08917E+03  1.110E+00  1.214E+01  8.495E-02  1.370E+00
   1    3    3     1     3    2.0425E+01  2.9709E-01   2.0128E+01  0.000E+00  0.000E+00  0.000E+00  1.08352E+03  1.105E+00  1.206E+01  7.238E-02  1.368E+00
   1    3    4     1     4    2.0128E+01  2.7299E-01   1.9855E+01  0.000E+00  0.000E+00  0.000E+00  1.07851E+03  1.100E+00  1.200E+01  6.659E-02  1.367E+00
   1    4    5     2     1    1.7855E+01  3.1056E-01   1.7544E+01  0.000E+00  0.000E+00  0.000E+00  1.07292E+03  9.816E-01  1.200E+01  7.800E-02  1.327E+00
   1    5    6     2     2    1.7544E+01  2.3834E-01   1.7306E+01  0.000E+00  0.000E+00  0.000E+00  1.06748E+03  9.724E-01  1.200E+01  6.000E-02  1.324E+00
   1    6    6     2     3    1.7306E+01  2.3786E-01   1.7068E+01  0.000E+00  0.000E+00  0.000E+00  1.06276E+03  9.644E-01  1.200E+01  6.000E-02  1.321E+00
   1    7    6     2     4    1.7068E+01  2.3738E-01   1.6831E+01  0.000E+00  0.000E+00  0.000E+00  1.05803E+03  9.564E-01  1.200E+01  6.000E-02  1.319E+00
   1    8    6     2     5    1.6831E+01  2.3690E-01   1.6594E+01  0.000E+00  0.000E+00  0.000E+00  1.05331E+03  9.483E-01  1.200E+01  6.000E-02  1.316E+00
   1    3    5     3     1    2.0000E+00  2.8252E-01   1.7175E+00  0.000E+00  0.000E+00  0.000E+00  1.07555E+03  1.909E+00  9.636E+00  7.227E-02  1.955E+00
   1    3    6     3     2    1.7175E+00  2.4905E-01   1.4684E+00  0.000E+00  0.000E+00  0.000E+00  1.07264E+03  1.727E+00  8.909E+00  6.682E-02  1.864E+00
   1    3    7     3     3    1.4684E+00  1.9718E-01   1.2712E+00  0.000E+00  0.000E+00  0.000E+00  1.06987E+03  1.555E+00  8.218E+00  5.547E-02  1.777E+00
   1    4    8     3     4    1.2712E+00  2.2567E-01   1.0456E+00  0.000E+00  0.000E+00  0.000E+00  1.06682E+03  1.364E+00  7.455E+00  6.709E-02  1.682E+00
   1    5    8     3     5    1.0456E+00  1.5790E-01   8.8768E-01  0.000E+00  0.000E+00  0.000E+00  1.06362E+03  1.164E+00  6.655E+00  4.991E-02  1.582E+00
   1    6    8     3     6    8.8768E-01  5.5980E-02   8.3170E-01  0.000E+00  0.000E+00  0.000E+00  1.06158E+03  1.036E+00  6.145E+00  1.844E-02  1.518E+00
   1    5   10     4     1    1.0000E+01  9.0919E-02   9.9091E+00  0.000E+00  0.000E+00  0.000E+00  1.07836E+03  6.368E-01  1.000E+01  2.500E-02  1.212E+00
   1    5    9     4     2    9.9091E+00  1.8158E-01   9.7275E+00  0.000E+00  0.000E+00  0.000E+00  1.07154E+03  6.315E-01  1.000E+01  5.000E-02  1.211E+00
   1    6    8     4     3    9.7275E+00  1.2689E-01   9.6006E+00  0.000E+00  0.000E+00  0.000E+00  1.06381E+03  6.256E-01  1.000E+01  3.500E-02  1.209E+00
   1    6    8     5     1    1.0432E+01  2.2686E-01   1.0205E+01  0.000E+00  0.000E+00  0.000E+00  1.05868E+03  6.790E-01  1.542E+01  6.166E-02  1.226E+00
   1    7    7     5     2    1.0205E+01  2.7894E-01   9.9265E+00  0.000E+00  0.000E+00  0.000E+00  1.05417E+03  6.732E-01  1.519E+01  7.594E-02  1.224E+00
   1    8    7     5     3    9.9265E+00  1.9221E-01   9.7343E+00  0.000E+00  0.000E+00  0.000E+00  1.04992E+03  6.676E-01  1.497E+01  5.241E-02  1.223E+00
   1    8    6     5     4    9.7343E+00  1.3577E-01   9.5985E+00  0.000E+00  0.000E+00  0.000E+00  1.04691E+03  6.637E-01  1.482E+01  3.706E-02  1.221E+00
   1    9    6     6     1    2.3057E+01  2.4957E-01   2.2808E+01  0.000E+00  0.000E+00  0.000E+00  1.04389E+03  1.159E+00  1.200E+01  6.000E-02  1.386E+00
   1   10    7     6     2    2.2808E+01  2.4911E-01   2.2559E+01  0.000E+00  0.000E+00  0.000E+00  1.03933E+03  1.152E+00  1.200E+01  6.000E-02  1.384E+00
   1   11    7     6     3    2.2559E+01  2.4865E-01   2.2310E+01  0.000E+00  0.000E+00  0.000E+00  1.03478E+03  1.144E+00  1.200E+01  6.000E-02  1.381E+00
   1   12    7     6     4    2.2310E+01  2.4820E-01   2.2062E+01  0.000E+00  0.000E+00  0.000E+00  1.03023E+03  1.137E+00  1.200E+01  6.000E-02  1.379E+00
   1   13    7     6     5    2.2062E+01 -2.1266E-02   2.2083E+01  0.000E+00  0.000E+00  0.000E+00  1.02704E+03  1.133E+00  1.200E+01  2.400E-01 -2.954E-02
   1   14    9     7     1    1.5000E+02  1.3358E+00   1.4866E+02  0.000E+00  0.000E+00  0.000E+00  1.03987E+03  2.288E+00  5.529E+01  5.593E-01  7.961E-01
   1   13    8     7     2    1.4866E+02  1.8273E+00   1.4684E+02  0.000E+00  0.000E+00  0.000E+00  1.03478E+03  2.279E+00  5.526E+01  6.148E-01  9.908E-01
   1   13    7     7     3    1.4684E+02  1.4292E+00   1.4541E+02  0.000E+00  0.000E+00  0.000E+00  1.02969E+03  2.271E+00  5.522E+01  5.585E-01  8.530E-01
   1   13    6     8     1    1.6749E+02  8.4402E-01   1.6665E+02  0.000E+00  0.000E+00  0.000E+00  1.02481E+03  2.933E+00  4.253E+01  4.334E-01  6.492E-01
   1   13    5     8     2    1.6665E+02  9.4391E-02   1.6655E+02  0.000E+00  0.000E+00  0.000E+00  1.01855E+03  2.930E+00  4.248E+01  4.329E-01  7.268E-02
   1   13    4     8     3    1.6655E+02 -3.1041E+00   1.6966E+02  0.000E+00  0.000E+00  0.000E+00  1.01231E+03  2.940E+00  4.263E+01  4.344E+00 -2.382E-01
   1   13    3     8     4    1.6966E+02 -4.2106E+00   1.7387E+02  0.000E+00  0.000E+00  0.000E+00  1.00609E+03  2.964E+00  4.297E+01  4.379E+00 -3.205E-01
   1   13    2     8     5    1.7387E+02 -3.1385E+00   1.7701E+02  0.000E+00  0.000E+00  0.000E+00  9.99862E+02  2.987E+00  4.332E+01  4.414E+00 -2.370E-01
   1   13    1     8     6    1.7701E+02 -2.2871E+00   1.7929E+02  0.000E+00  0.000E+00  0.000E+00  9.94880E+02  3.004E+00  4.357E+01  2.664E+00 -2.862E-01
   1    8    6     9     1    3.1349E+00  0.0000E+00   3.1349E+00  0.000E+00  0.000E+00  0.000E+00  1.07988E+03  1.130E+00  4.000E+00  0.000E+00  1.377E+00
   1    8    5     9     2    3.1349E+00  0.0000E+00   3.1349E+00  0.000E+00  0.000E+00  0.000E+00  1.07938E+03  1.130E+00  4.000E+00  0.000E+00  1.377E+00



 UBDSV3 SAVING "           GW ET" ON UNIT  61 AT TIME STEP  3, STRESS PERIOD   5
 UBDSV3 SAVING "    UZF RECHARGE" ON UNIT  61 AT TIME STEP  3, STRESS PERIOD   5
 UBDSV3 SAVING " SURFACE LEAKAGE" ON UNIT  61 AT TIME STEP  3, STRESS PERIOD   5
 UBDSV3 SAVING "       HORT+DUNN" ON UNIT  61 AT TIME STEP  3, STRESS PERIOD   5
 UBDSV3 SAVING "  STORAGE CHANGE" ON UNIT  61 AT TIME STEP  3, STRESS PERIOD   5


UNSATURATED ZONE PACKAGE VOLUMETRIC BUDGET FOR  TIME STEP     3 STRESS PERIOD    5
  ------------------------------------------------------------------------------



     CUMULATIVE VOLUMES      L**3       RATES FOR THIS TIME STEP      L**3/T
     ------------------                 ------------------------

           IN:                                      IN:
           ---                                      ---
        INFILTRATION =    36530937.4011          INFILTRATION =           7.5425

          OUT:                                     OUT:
          ----                                     ----
              UZF ET =    13134754.1147                UZF ET =          23.0680
        UZF RECHARGE =       73224.0000          UZF RECHARGE =       0.0000E+00

            IN - OUT =    23322959.2864              IN - OUT =         -15.5255

          STORAGE:                                 STORAGE:
          --------                                 --------
      STORAGE CHANGE =    23322958.9754        STORAGE CHANGE =         -15.5255

 PERCENT DISCREPANCY IS DIFFERENCE BETWEEN IN-OUT MINUS CHANGE IN STORAGE
 DIVIDED BY THE AVERAGE OF IN AND OUT TIMES 100

 PERCENT DISCREPANCY =           0.00     PERCENT DISCREPANCY =           0.00






 

            AG WELLS      PERIOD    5   STEP   3
 AG WELL      1   LAYER   1   ROW     6   COL     4   RATE     0.00000    
 AG WELL      2   LAYER   1   ROW     6   COL     5   RATE     0.00000    
 AG WELL      3   LAYER   1   ROW     7   COL     4   RATE     0.00000    
 AG WELL      4   LAYER   1   ROW     7   COL     5   RATE     0.00000    
 AG WELL      5   LAYER   1   ROW     8   COL     4   RATE     0.00000    
 AG WELL      6   LAYER   1   ROW     8   COL     5   RATE     0.00000    
 
 

   DIVERSION SEGMENTS     PERIOD    5   STEP   3
 SEGMENT      9   RATE     3.13493    
 
 

        SW IRRIGATION     PERIOD    5   STEP   3
 SEGMENT      9   ROW     6   COL     4   RATE    0.522498    
 SEGMENT      9   ROW     6   COL     5   RATE    0.522498    
 SEGMENT      9   ROW     7   COL     4   RATE    0.522498    
 SEGMENT      9   ROW     7   COL     5   RATE    0.522498    
 SEGMENT      9   ROW     8   COL     4   RATE    0.522498    
 SEGMENT      9   ROW     8   COL     5   RATE    0.522498    
 
 

        GW IRRIGATION     PERIOD    5   STEP   3
 AG WELL      1   ROW     6   COL     4   RATE     0.00000    
 AG WELL      2   ROW     6   COL     5   RATE     0.00000    
 AG WELL      3   ROW     7   COL     4   RATE     0.00000    
 AG WELL      4   ROW     7   COL     5   RATE     0.00000    
 AG WELL      5   ROW     8   COL     4   RATE     0.00000    
 AG WELL      6   ROW     8   COL     5   RATE     0.00000    
 
1
  VOLUMETRIC BUDGET FOR ENTIRE MODEL AT END OF TIME STEP    3, STRESS PERIOD   5
  ------------------------------------------------------------------------------

     CUMULATIVE VOLUMES      L**3       RATES FOR THIS TIME STEP      L**3/T
     ------------------                 ------------------------

           IN:                                      IN:
           ---                                      ---
               AG WELLS  =           0.0000                 AG WELLS  =           0.0000
      DIVERSION SEGMENTS =      523356.8125        DIVERSION SEGMENTS =           3.1349
           GW IRRIGATION =           0.0000             GW IRRIGATION =           0.0000
           SW IRRIGATION =           0.0000             SW IRRIGATION =           0.0000
        SYSTEM LOSSES GW =           0.0000          SYSTEM LOSSES GW =           0.0000
        SYSTEM LOSSES SW =           0.0000          SYSTEM LOSSES SW =           0.0000

                TOTAL IN =      523356.8125                  TOTAL IN =           3.1349

          OUT:                                     OUT:
          ----                                     ----
               AG WELLS  =           0.0000                 AG WELLS  =           0.0000
      DIVERSION SEGMENTS =           0.0000        DIVERSION SEGMENTS =           0.0000
           GW IRRIGATION =           0.0000             GW IRRIGATION =           0.0000
           SW IRRIGATION =      523367.2812             SW IRRIGATION =           3.1350
        SYSTEM LOSSES GW =           0.0000          SYSTEM LOSSES GW =           0.0000
        SYSTEM LOSSES SW =           0.0000          SYSTEM LOSSES SW =           0.0000

               TOTAL OUT =      523367.2812                 TOTAL OUT =           3.1350

                IN - OUT =         -10.4688                  IN - OUT =      -6.2704E-05

     PERCENT DISCREPANCY =          -0.00         PERCENT DISCREPANCY =          -0.00



1
  VOLUMETRIC BUDGET FOR ENTIRE MODEL AT END OF TIME STEP    3, STRESS PERIOD   5
  ------------------------------------------------------------------------------

     CUMULATIVE VOLUMES      L**3       RATES FOR THIS TIME STEP      L**3/T
     ------------------                 ------------------------

           IN:                                      IN:
           ---                                      ---
             STORAGE     =     5071334.5000               STORAGE     =           2.6730
       CONSTANT HEAD     =           0.0000         CONSTANT HEAD     =           0.0000
     HEAD DEP BOUNDS     =     2354059.0000       HEAD DEP BOUNDS     =           0.2858
      STREAM LEAKAGE     =    98915016.0000        STREAM LEAKAGE     =          11.3340
        UZF RECHARGE     =       73223.9531          UZF RECHARGE     =           0.0000
               GW ET     =           0.0000                 GW ET     =           0.0000
     SURFACE LEAKAGE     =           0.0000       SURFACE LEAKAGE     =           0.0000
           AG WELLS      =           0.0000             AG WELLS      =           0.0000

                TOTAL IN =   106413632.0000                  TOTAL IN =          14.2928

          OUT:                                     OUT:
          ----                                     ----
             STORAGE     =    18463124.0000               STORAGE     =           1.2365
       CONSTANT HEAD     =           0.0000         CONSTANT HEAD     =           0.0000
     HEAD DEP BOUNDS     =     2393863.5000       HEAD DEP BOUNDS     =           0.2940
      STREAM LEAKAGE     =    85560448.0000        STREAM LEAKAGE     =          12.7615
        UZF RECHARGE     =           0.0000          UZF RECHARGE     =           0.0000
               GW ET     =          51.1183                 GW ET     =       5.8310E-04
     SURFACE LEAKAGE     =           0.0000       SURFACE LEAKAGE     =           0.0000
           AG WELLS      =           0.0000             AG WELLS      =           0.0000

               TOTAL OUT =   106417488.0000                 TOTAL OUT =          14.2927

                IN - OUT =       -3856.0000                  IN - OUT =       8.2016E-05

     PERCENT DISCREPANCY =          -0.00         PERCENT DISCREPANCY =           0.00






         TIME SUMMARY AT END OF TIME STEP    3 IN STRESS PERIOD    5
                    SECONDS     MINUTES      HOURS       DAYS        YEARS
                    -----------------------------------------------------------
   TIME STEP LENGTH  87667.      1461.1      24.352      1.0147     2.77799E-03
 STRESS PERIOD TIME 2.63000E+05  4383.3      73.056      3.0440     8.33397E-03
         TOTAL TIME 8.23939E+06 1.37323E+05  2288.7      95.363     0.26109    
1
 
 SOLVING FOR HEAD 
                                                   Max.-Head-Change                         Max.-Flux-Residual
  Residual-Control   Outer-Iter.   Inner-Iter.     Column Row Layer    Maximum-Head-Change  Column Row Layer    Maximum-Flux-Residual          L2-NORM 
          0                 1           2             4   13     1      -0.9303658819E-02       4   13    1        -0.5432330962E+00      0.9987314237E+00
          0                 2           2             3   13     1       0.5238589769E-03       3   13    1         0.3110106509E-01      0.5942203911E-01
          0                 3           2             4   13     1      -0.3583953621E-03       4   13    1        -0.2209741354E-01      0.4050290204E-01
          0                 4           2             4   13     1      -0.3394940064E-03       4   13    1        -0.2092532586E-01      0.3717488427E-01
          0                 5           2             4   13     1      -0.2414854963E-03       4   13    1        -0.1488274710E-01      0.2651144443E-01
          0                 6           1             4   13     1       0.9395567425E-05       4   13    1         0.5952845322E-03      0.1081399390E-02

    ------------------------------------------------
       NWT REQUIRED            6 OUTER ITERATIONS 
       AND A TOTAL OF         11 INNER ITERATIONS.
    ------------------------------------------------

 OUTPUT CONTROL FOR STRESS PERIOD    5   TIME STEP    4
    PRINT BUDGET
    SAVE BUDGET
 UBDSV1 SAVING "         STORAGE" ON UNIT 102 AT TIME STEP  4, STRESS PERIOD   5
 UBDSV2 SAVING "   CONSTANT HEAD" ON UNIT 102 AT TIME STEP  4, STRESS PERIOD   5
 UBDSV1 SAVING "FLOW RIGHT FACE " ON UNIT 102 AT TIME STEP  4, STRESS PERIOD   5
 UBDSV1 SAVING "FLOW FRONT FACE " ON UNIT 102 AT TIME STEP  4, STRESS PERIOD   5

  HEAD DEP BOUNDS   PERIOD    5   STEP     4
 BOUNDARY      1   LAYER   1   ROW    13   COL     1   RATE   -0.293839    
 BOUNDARY      2   LAYER   1   ROW    14   COL     9   RATE    0.285760    



 STREAM LISTING     PERIOD      5   STEP        4

 LAYER ROW COL. STREAM  RCH.  FLOW INTO     FLOW TO   FLOW OUT OF   OVRLND.     DIRECT     STREAM       STREAM     STREAM     STREAM   STREAMBED  STREAMBED
                SEG.NO.  NO.  STRM. RCH.    AQUIFER    STRM. RCH.    RUNOFF     PRECIP       ET          HEAD       DEPTH      WIDTH   CONDCTNC.   GRADIENT

   1    1    1     1     1    2.1000E+01  2.2591E-01   2.0774E+01  0.000E+00  0.000E+00  0.000E+00  1.09416E+03  1.115E+00  1.220E+01  5.490E-02  1.372E+00
   1    2    2     1     2    2.0774E+01  3.4916E-01   2.0425E+01  0.000E+00  0.000E+00  0.000E+00  1.08917E+03  1.110E+00  1.214E+01  8.495E-02  1.370E+00
   1    3    3     1     3    2.0425E+01  2.9709E-01   2.0128E+01  0.000E+00  0.000E+00  0.000E+00  1.08352E+03  1.105E+00  1.206E+01  7.238E-02  1.368E+00
   1    3    4     1     4    2.0128E+01  2.7299E-01   1.9855E+01  0.000E+00  0.000E+00  0.000E+00  1.07851E+03  1.100E+00  1.200E+01  6.659E-02  1.367E+00
   1    4    5     2     1    1.7855E+01  3.1056E-01   1.7544E+01  0.000E+00  0.000E+00  0.000E+00  1.07292E+03  9.816E-01  1.200E+01  7.800E-02  1.327E+00
   1    5    6     2     2    1.7544E+01  2.3834E-01   1.7306E+01  0.000E+00  0.000E+00  0.000E+00  1.06748E+03  9.724E-01  1.200E+01  6.000E-02  1.324E+00
   1    6    6     2     3    1.7306E+01  2.3786E-01   1.7068E+01  0.000E+00  0.000E+00  0.000E+00  1.06276E+03  9.644E-01  1.200E+01  6.000E-02  1.321E+00
   1    7    6     2     4    1.7068E+01  2.3738E-01   1.6831E+01  0.000E+00  0.000E+00  0.000E+00  1.05803E+03  9.564E-01  1.200E+01  6.000E-02  1.319E+00
   1    8    6     2     5    1.6831E+01  2.3690E-01   1.6594E+01  0.000E+00  0.000E+00  0.000E+00  1.05331E+03  9.483E-01  1.200E+01  6.000E-02  1.316E+00
   1    3    5     3     1    2.0000E+00  2.8252E-01   1.7175E+00  0.000E+00  0.000E+00  0.000E+00  1.07555E+03  1.909E+00  9.636E+00  7.227E-02  1.955E+00
   1    3    6     3     2    1.7175E+00  2.4905E-01   1.4684E+00  0.000E+00  0.000E+00  0.000E+00  1.07264E+03  1.727E+00  8.909E+00  6.682E-02  1.864E+00
   1    3    7     3     3    1.4684E+00  1.9718E-01   1.2712E+00  0.000E+00  0.000E+00  0.000E+00  1.06987E+03  1.555E+00  8.218E+00  5.547E-02  1.777E+00
   1    4    8     3     4    1.2712E+00  2.2567E-01   1.0456E+00  0.000E+00  0.000E+00  0.000E+00  1.06682E+03  1.364E+00  7.455E+00  6.709E-02  1.682E+00
   1    5    8     3     5    1.0456E+00  1.5790E-01   8.8768E-01  0.000E+00  0.000E+00  0.000E+00  1.06362E+03  1.164E+00  6.655E+00  4.991E-02  1.582E+00
   1    6    8     3     6    8.8768E-01  5.5980E-02   8.3170E-01  0.000E+00  0.000E+00  0.000E+00  1.06158E+03  1.036E+00  6.145E+00  1.844E-02  1.518E+00
   1    5   10     4     1    1.0000E+01  9.0919E-02   9.9091E+00  0.000E+00  0.000E+00  0.000E+00  1.07836E+03  6.368E-01  1.000E+01  2.500E-02  1.212E+00
   1    5    9     4     2    9.9091E+00  1.8158E-01   9.7275E+00  0.000E+00  0.000E+00  0.000E+00  1.07154E+03  6.315E-01  1.000E+01  5.000E-02  1.211E+00
   1    6    8     4     3    9.7275E+00  1.2689E-01   9.6006E+00  0.000E+00  0.000E+00  0.000E+00  1.06381E+03  6.256E-01  1.000E+01  3.500E-02  1.209E+00
   1    6    8     5     1    1.0432E+01  2.2686E-01   1.0205E+01  0.000E+00  0.000E+00  0.000E+00  1.05868E+03  6.790E-01  1.542E+01  6.166E-02  1.226E+00
   1    7    7     5     2    1.0205E+01  2.7894E-01   9.9265E+00  0.000E+00  0.000E+00  0.000E+00  1.05417E+03  6.732E-01  1.519E+01  7.594E-02  1.224E+00
   1    8    7     5     3    9.9265E+00  1.9221E-01   9.7343E+00  0.000E+00  0.000E+00  0.000E+00  1.04992E+03  6.676E-01  1.497E+01  5.241E-02  1.223E+00
   1    8    6     5     4    9.7343E+00  1.3577E-01   9.5985E+00  0.000E+00  0.000E+00  0.000E+00  1.04691E+03  6.637E-01  1.482E+01  3.706E-02  1.221E+00
   1    9    6     6     1    2.2328E+01  2.4823E-01   2.2080E+01  0.000E+00  0.000E+00  0.000E+00  1.04386E+03  1.137E+00  1.200E+01  6.000E-02  1.379E+00
   1   10    7     6     2    2.2080E+01  2.4777E-01   2.1832E+01  0.000E+00  0.000E+00  0.000E+00  1.03931E+03  1.130E+00  1.200E+01  6.000E-02  1.377E+00
   1   11    7     6     3    2.1832E+01  2.4731E-01   2.1585E+01  0.000E+00  0.000E+00  0.000E+00  1.03476E+03  1.122E+00  1.200E+01  6.000E-02  1.374E+00
   1   12    7     6     4    2.1585E+01  2.4685E-01   2.1338E+01  0.000E+00  0.000E+00  0.000E+00  1.03021E+03  1.114E+00  1.200E+01  6.000E-02  1.371E+00
   1   13    7     6     5    2.1338E+01 -2.6616E-02   2.1364E+01  0.000E+00  0.000E+00  0.000E+00  1.02702E+03  1.111E+00  1.200E+01  2.400E-01 -3.697E-02
   1   14    9     7     1    1.5000E+02  1.3358E+00   1.4866E+02  0.000E+00  0.000E+00  0.000E+00  1.03987E+03  2.288E+00  5.529E+01  5.593E-01  7.961E-01
   1   13    8     7     2    1.4866E+02  1.8272E+00   1.4684E+02  0.000E+00  0.000E+00  0.000E+00  1.03478E+03  2.279E+00  5.526E+01  6.148E-01  9.907E-01
   1   13    7     7     3    1.4684E+02  1.4292E+00   1.4541E+02  0.000E+00  0.000E+00  0.000E+00  1.02969E+03  2.271E+00  5.522E+01  5.585E-01  8.531E-01
   1   13    6     8     1    1.6677E+02  8.4124E-01   1.6593E+02  0.000E+00  0.000E+00  0.000E+00  1.02480E+03  2.928E+00  4.246E+01  4.327E-01  6.481E-01
   1   13    5     8     2    1.6593E+02  9.2641E-02   1.6584E+02  0.000E+00  0.000E+00  0.000E+00  1.01855E+03  2.925E+00  4.242E+01  4.322E-01  7.144E-02
   1   13    4     8     3    1.6584E+02 -3.0775E+00   1.6892E+02  0.000E+00  0.000E+00  0.000E+00  1.01231E+03  2.935E+00  4.256E+01  4.337E+00 -2.365E-01
   1   13    3     8     4    1.6892E+02 -4.1836E+00   1.7310E+02  0.000E+00  0.000E+00  0.000E+00  1.00608E+03  2.959E+00  4.290E+01  4.372E+00 -3.190E-01
   1   13    2     8     5    1.7310E+02 -3.1128E+00   1.7621E+02  0.000E+00  0.000E+00  0.000E+00  9.99857E+02  2.982E+00  4.324E+01  4.407E+00 -2.355E-01
   1   13    1     8     6    1.7621E+02 -2.2820E+00   1.7849E+02  0.000E+00  0.000E+00  0.000E+00  9.94874E+02  2.999E+00  4.349E+01  2.659E+00 -2.861E-01
   1    8    6     9     1    3.8644E+00  0.0000E+00   3.8644E+00  0.000E+00  0.000E+00  0.000E+00  1.08003E+03  1.281E+00  4.000E+00  0.000E+00  1.427E+00
   1    8    5     9     2    3.8644E+00  0.0000E+00   3.8644E+00  0.000E+00  0.000E+00  0.000E+00  1.07953E+03  1.281E+00  4.000E+00  0.000E+00  1.427E+00



 UBDSV3 SAVING "           GW ET" ON UNIT  61 AT TIME STEP  4, STRESS PERIOD   5
 UBDSV3 SAVING "    UZF RECHARGE" ON UNIT  61 AT TIME STEP  4, STRESS PERIOD   5
 UBDSV3 SAVING " SURFACE LEAKAGE" ON UNIT  61 AT TIME STEP  4, STRESS PERIOD   5
 UBDSV3 SAVING "       HORT+DUNN" ON UNIT  61 AT TIME STEP  4, STRESS PERIOD   5
 UBDSV3 SAVING "  STORAGE CHANGE" ON UNIT  61 AT TIME STEP  4, STRESS PERIOD   5


UNSATURATED ZONE PACKAGE VOLUMETRIC BUDGET FOR  TIME STEP     4 STRESS PERIOD    5
  ------------------------------------------------------------------------------



     CUMULATIVE VOLUMES      L**3       RATES FOR THIS TIME STEP      L**3/T
     ------------------                 ------------------------

           IN:                                      IN:
           ---                                      ---
        INFILTRATION =    37256115.1931          INFILTRATION =           8.2720

          OUT:                                     OUT:
          ----                                     ----
              UZF ET =    14559945.5884                UZF ET =          16.2569
        UZF RECHARGE =       73224.0000          UZF RECHARGE =       0.0000E+00

            IN - OUT =    22622945.6047              IN - OUT =          -7.9849

          STORAGE:                                 STORAGE:
          --------                                 --------
      STORAGE CHANGE =    22622945.2875        STORAGE CHANGE =          -7.9849

 PERCENT DISCREPANCY IS DIFFERENCE BETWEEN IN-OUT MINUS CHANGE IN STORAGE
 DIVIDED BY THE AVERAGE OF IN AND OUT TIMES 100

 PERCENT DISCREPANCY =           0.00     PERCENT DISCREPANCY =           0.00






 

            AG WELLS      PERIOD    5   STEP   4
 AG WELL      1   LAYER   1   ROW     6   COL     4   RATE     0.00000    
 AG WELL      2   LAYER   1   ROW     6   COL     5   RATE     0.00000    
 AG WELL      3   LAYER   1   ROW     7   COL     4   RATE     0.00000    
 AG WELL      4   LAYER   1   ROW     7   COL     5   RATE     0.00000    
 AG WELL      5   LAYER   1   ROW     8   COL     4   RATE     0.00000    
 AG WELL      6   LAYER   1   ROW     8   COL     5   RATE     0.00000    
 
 

   DIVERSION SEGMENTS     PERIOD    5   STEP   4
 SEGMENT      9   RATE     3.86441    
 
 

        SW IRRIGATION     PERIOD    5   STEP   4
 SEGMENT      9   ROW     6   COL     4   RATE    0.644082    
 SEGMENT      9   ROW     6   COL     5   RATE    0.644082    
 SEGMENT      9   ROW     7   COL     4   RATE    0.644082    
 SEGMENT      9   ROW     7   COL     5   RATE    0.644082    
 SEGMENT      9   ROW     8   COL     4   RATE    0.644082    
 SEGMENT      9   ROW     8   COL     5   RATE    0.644082    
 
 

        GW IRRIGATION     PERIOD    5   STEP   4
 AG WELL      1   ROW     6   COL     4   RATE     0.00000    
 AG WELL      2   ROW     6   COL     5   RATE     0.00000    
 AG WELL      3   ROW     7   COL     4   RATE     0.00000    
 AG WELL      4   ROW     7   COL     5   RATE     0.00000    
 AG WELL      5   ROW     8   COL     4   RATE     0.00000    
 AG WELL      6   ROW     8   COL     5   RATE     0.00000    
 
1
  VOLUMETRIC BUDGET FOR ENTIRE MODEL AT END OF TIME STEP    4, STRESS PERIOD   5
  ------------------------------------------------------------------------------

     CUMULATIVE VOLUMES      L**3       RATES FOR THIS TIME STEP      L**3/T
     ------------------                 ------------------------

           IN:                                      IN:
           ---                                      ---
               AG WELLS  =           0.0000                 AG WELLS  =           0.0000
      DIVERSION SEGMENTS =      862137.0625        DIVERSION SEGMENTS =           3.8644
           GW IRRIGATION =           0.0000             GW IRRIGATION =           0.0000
           SW IRRIGATION =           0.0000             SW IRRIGATION =           0.0000
        SYSTEM LOSSES GW =           0.0000          SYSTEM LOSSES GW =           0.0000
        SYSTEM LOSSES SW =           0.0000          SYSTEM LOSSES SW =           0.0000

                TOTAL IN =      862137.0625                  TOTAL IN =           3.8644

          OUT:                                     OUT:
          ----                                     ----
               AG WELLS  =           0.0000                 AG WELLS  =           0.0000
      DIVERSION SEGMENTS =           0.0000        DIVERSION SEGMENTS =           0.0000
           GW IRRIGATION =           0.0000             GW IRRIGATION =           0.0000
           SW IRRIGATION =      862154.2500             SW IRRIGATION =           3.8645
        SYSTEM LOSSES GW =           0.0000          SYSTEM LOSSES GW =           0.0000
        SYSTEM LOSSES SW =           0.0000          SYSTEM LOSSES SW =           0.0000

               TOTAL OUT =      862154.2500                 TOTAL OUT =           3.8645

                IN - OUT =         -17.1875                  IN - OUT =      -7.7009E-05

     PERCENT DISCREPANCY =          -0.00         PERCENT DISCREPANCY =          -0.00



1
  VOLUMETRIC BUDGET FOR ENTIRE MODEL AT END OF TIME STEP    4, STRESS PERIOD   5
  ------------------------------------------------------------------------------

     CUMULATIVE VOLUMES      L**3       RATES FOR THIS TIME STEP      L**3/T
     ------------------                 ------------------------

           IN:                                      IN:
           ---                                      ---
             STORAGE     =     5302460.5000               STORAGE     =           2.6364
       CONSTANT HEAD     =           0.0000         CONSTANT HEAD     =           0.0000
     HEAD DEP BOUNDS     =     2379110.7500       HEAD DEP BOUNDS     =           0.2858
      STREAM LEAKAGE     =    99907752.0000        STREAM LEAKAGE     =          11.3240
        UZF RECHARGE     =       73223.9531          UZF RECHARGE     =           0.0000
               GW ET     =           0.0000                 GW ET     =           0.0000
     SURFACE LEAKAGE     =           0.0000       SURFACE LEAKAGE     =           0.0000
           AG WELLS      =           0.0000             AG WELLS      =           0.0000

                TOTAL IN =   107662544.0000                  TOTAL IN =          14.2462

          OUT:                                     OUT:
          ----                                     ----
             STORAGE     =    18568408.0000               STORAGE     =           1.2010
       CONSTANT HEAD     =           0.0000         CONSTANT HEAD     =           0.0000
     HEAD DEP BOUNDS     =     2419623.5000       HEAD DEP BOUNDS     =           0.2938
      STREAM LEAKAGE     =    86672280.0000        STREAM LEAKAGE     =          12.6825
        UZF RECHARGE     =           0.0000          UZF RECHARGE     =           0.0000
               GW ET     =        6092.0513                 GW ET     =       6.8908E-02
     SURFACE LEAKAGE     =           0.0000       SURFACE LEAKAGE     =           0.0000
           AG WELLS      =           0.0000             AG WELLS      =           0.0000

               TOTAL OUT =   107666408.0000                 TOTAL OUT =          14.2462

                IN - OUT =       -3864.0000                  IN - OUT =      -6.4850E-05

     PERCENT DISCREPANCY =          -0.00         PERCENT DISCREPANCY =          -0.00






         TIME SUMMARY AT END OF TIME STEP    4 IN STRESS PERIOD    5
                    SECONDS     MINUTES      HOURS       DAYS        YEARS
                    -----------------------------------------------------------
   TIME STEP LENGTH  87667.      1461.1      24.352      1.0147     2.77799E-03
 STRESS PERIOD TIME 3.50667E+05  5844.4      97.407      4.0586     1.11120E-02
         TOTAL TIME 8.32706E+06 1.38784E+05  2313.1      96.378     0.26387    
1
 
 SOLVING FOR HEAD 
                                                   Max.-Head-Change                         Max.-Flux-Residual
  Residual-Control   Outer-Iter.   Inner-Iter.     Column Row Layer    Maximum-Head-Change  Column Row Layer    Maximum-Flux-Residual          L2-NORM 
          0                 1           2             2   13     1      -0.8415348579E-02       4   13    1        -0.4746470911E+00      0.9038314664E+00
          0                 2           2             3   13     1       0.4263683094E-03       3   13    1         0.2532056258E-01      0.5069486067E-01
          0                 3           2             4   13     1      -0.2897347935E-03       4   13    1        -0.1786299198E-01      0.3327245697E-01
          0                 4           2             4   13     1      -0.3615846867E-03       4   13    1        -0.2228751410E-01      0.3956861718E-01
          0                 5           1             2   13     1      -0.7138037009E-04       4   13    1        -0.4376115963E-02      0.7798086568E-02

    ------------------------------------------------
       NWT REQUIRED            5 OUTER ITERATIONS 
       AND A TOTAL OF          9 INNER ITERATIONS.
    ------------------------------------------------

 NO OUTPUT CONTROL FOR STRESS PERIOD    5   TIME STEP    5
 
 SOLVING FOR HEAD 
                                                   Max.-Head-Change                         Max.-Flux-Residual
  Residual-Control   Outer-Iter.   Inner-Iter.     Column Row Layer    Maximum-Head-Change  Column Row Layer    Maximum-Flux-Residual          L2-NORM 
          0                 1           2             2   13     1      -0.7708066672E-02       2   13    1        -0.4335015571E+00      0.8209550971E+00
          0                 2           2             3   13     1       0.3304585293E-03       3   13    1         0.1963571121E-01      0.4254595245E-01
          0                 3           2             4   13     1      -0.3497920043E-03       4   13    1        -0.2156302823E-01      0.4002279755E-01
          0                 4           2             4   13     1      -0.3032737895E-03       4   13    1        -0.1869320209E-01      0.3316192625E-01
          0                 5           2             4   13     1      -0.1916202445E-03       4   13    1        -0.1180996404E-01      0.2102060662E-01
          0                 6           1             4   13     1       0.7453476117E-05       4   13    1         0.4722546037E-03      0.8527115644E-03

    ------------------------------------------------
       NWT REQUIRED            6 OUTER ITERATIONS 
       AND A TOTAL OF         11 INNER ITERATIONS.
    ------------------------------------------------

 OUTPUT CONTROL FOR STRESS PERIOD    5   TIME STEP    6
    PRINT BUDGET
    SAVE BUDGET
 UBDSV1 SAVING "         STORAGE" ON UNIT 102 AT TIME STEP  6, STRESS PERIOD   5
 UBDSV2 SAVING "   CONSTANT HEAD" ON UNIT 102 AT TIME STEP  6, STRESS PERIOD   5
 UBDSV1 SAVING "FLOW RIGHT FACE " ON UNIT 102 AT TIME STEP  6, STRESS PERIOD   5
 UBDSV1 SAVING "FLOW FRONT FACE " ON UNIT 102 AT TIME STEP  6, STRESS PERIOD   5

  HEAD DEP BOUNDS   PERIOD    5   STEP     6
 BOUNDARY      1   LAYER   1   ROW    13   COL     1   RATE   -0.293450    
 BOUNDARY      2   LAYER   1   ROW    14   COL     9   RATE    0.285762    



 STREAM LISTING     PERIOD      5   STEP        6

 LAYER ROW COL. STREAM  RCH.  FLOW INTO     FLOW TO   FLOW OUT OF   OVRLND.     DIRECT     STREAM       STREAM     STREAM     STREAM   STREAMBED  STREAMBED
                SEG.NO.  NO.  STRM. RCH.    AQUIFER    STRM. RCH.    RUNOFF     PRECIP       ET          HEAD       DEPTH      WIDTH   CONDCTNC.   GRADIENT

   1    1    1     1     1    2.1000E+01  2.2592E-01   2.0774E+01  0.000E+00  0.000E+00  0.000E+00  1.09416E+03  1.115E+00  1.220E+01  5.490E-02  1.372E+00
   1    2    2     1     2    2.0774E+01  3.4916E-01   2.0425E+01  0.000E+00  0.000E+00  0.000E+00  1.08917E+03  1.110E+00  1.214E+01  8.495E-02  1.370E+00
   1    3    3     1     3    2.0425E+01  2.9709E-01   2.0128E+01  0.000E+00  0.000E+00  0.000E+00  1.08352E+03  1.105E+00  1.206E+01  7.238E-02  1.368E+00
   1    3    4     1     4    2.0128E+01  2.7299E-01   1.9855E+01  0.000E+00  0.000E+00  0.000E+00  1.07851E+03  1.100E+00  1.200E+01  6.659E-02  1.367E+00
   1    4    5     2     1    1.7855E+01  3.1056E-01   1.7544E+01  0.000E+00  0.000E+00  0.000E+00  1.07292E+03  9.816E-01  1.200E+01  7.800E-02  1.327E+00
   1    5    6     2     2    1.7544E+01  2.3834E-01   1.7306E+01  0.000E+00  0.000E+00  0.000E+00  1.06748E+03  9.724E-01  1.200E+01  6.000E-02  1.324E+00
   1    6    6     2     3    1.7306E+01  2.3787E-01   1.7068E+01  0.000E+00  0.000E+00  0.000E+00  1.06276E+03  9.644E-01  1.200E+01  6.000E-02  1.321E+00
   1    7    6     2     4    1.7068E+01  2.3738E-01   1.6831E+01  0.000E+00  0.000E+00  0.000E+00  1.05803E+03  9.564E-01  1.200E+01  6.000E-02  1.319E+00
   1    8    6     2     5    1.6831E+01  2.3690E-01   1.6594E+01  0.000E+00  0.000E+00  0.000E+00  1.05331E+03  9.483E-01  1.200E+01  6.000E-02  1.316E+00
   1    3    5     3     1    2.0000E+00  2.8252E-01   1.7175E+00  0.000E+00  0.000E+00  0.000E+00  1.07555E+03  1.909E+00  9.636E+00  7.227E-02  1.955E+00
   1    3    6     3     2    1.7175E+00  2.4905E-01   1.4684E+00  0.000E+00  0.000E+00  0.000E+00  1.07264E+03  1.727E+00  8.909E+00  6.682E-02  1.864E+00
   1    3    7     3     3    1.4684E+00  1.9718E-01   1.2712E+00  0.000E+00  0.000E+00  0.000E+00  1.06987E+03  1.555E+00  8.218E+00  5.547E-02  1.777E+00
   1    4    8     3     4    1.2712E+00  2.2567E-01   1.0456E+00  0.000E+00  0.000E+00  0.000E+00  1.06682E+03  1.364E+00  7.455E+00  6.709E-02  1.682E+00
   1    5    8     3     5    1.0456E+00  1.5790E-01   8.8768E-01  0.000E+00  0.000E+00  0.000E+00  1.06362E+03  1.164E+00  6.655E+00  4.991E-02  1.582E+00
   1    6    8     3     6    8.8768E-01  5.5980E-02   8.3170E-01  0.000E+00  0.000E+00  0.000E+00  1.06158E+03  1.036E+00  6.145E+00  1.844E-02  1.518E+00
   1    5   10     4     1    1.0000E+01  9.0919E-02   9.9091E+00  0.000E+00  0.000E+00  0.000E+00  1.07836E+03  6.368E-01  1.000E+01  2.500E-02  1.212E+00
   1    5    9     4     2    9.9091E+00  1.8158E-01   9.7275E+00  0.000E+00  0.000E+00  0.000E+00  1.07154E+03  6.315E-01  1.000E+01  5.000E-02  1.211E+00
   1    6    8     4     3    9.7275E+00  1.2689E-01   9.6006E+00  0.000E+00  0.000E+00  0.000E+00  1.06381E+03  6.256E-01  1.000E+01  3.500E-02  1.209E+00
   1    6    8     5     1    1.0432E+01  2.2686E-01   1.0205E+01  0.000E+00  0.000E+00  0.000E+00  1.05868E+03  6.790E-01  1.542E+01  6.166E-02  1.226E+00
   1    7    7     5     2    1.0205E+01  2.7894E-01   9.9265E+00  0.000E+00  0.000E+00  0.000E+00  1.05417E+03  6.732E-01  1.519E+01  7.594E-02  1.224E+00
   1    8    7     5     3    9.9265E+00  1.9221E-01   9.7343E+00  0.000E+00  0.000E+00  0.000E+00  1.04992E+03  6.676E-01  1.497E+01  5.241E-02  1.223E+00
   1    8    6     5     4    9.7343E+00  1.3577E-01   9.5985E+00  0.000E+00  0.000E+00  0.000E+00  1.04691E+03  6.637E-01  1.482E+01  3.706E-02  1.221E+00
   1    9    6     6     1    2.2552E+01  2.4864E-01   2.2304E+01  0.000E+00  0.000E+00  0.000E+00  1.04387E+03  1.144E+00  1.200E+01  6.000E-02  1.381E+00
   1   10    7     6     2    2.2304E+01  2.4819E-01   2.2055E+01  0.000E+00  0.000E+00  0.000E+00  1.03932E+03  1.136E+00  1.200E+01  6.000E-02  1.379E+00
   1   11    7     6     3    2.2055E+01  2.4773E-01   2.1808E+01  0.000E+00  0.000E+00  0.000E+00  1.03477E+03  1.129E+00  1.200E+01  6.000E-02  1.376E+00
   1   12    7     6     4    2.1808E+01  2.4727E-01   2.1560E+01  0.000E+00  0.000E+00  0.000E+00  1.03021E+03  1.121E+00  1.200E+01  6.000E-02  1.374E+00
   1   13    7     6     5    2.1560E+01 -2.4940E-02   2.1585E+01  0.000E+00  0.000E+00  0.000E+00  1.02703E+03  1.118E+00  1.200E+01  2.400E-01 -3.464E-02
   1   14    9     7     1    1.5000E+02  1.3359E+00   1.4866E+02  0.000E+00  0.000E+00  0.000E+00  1.03987E+03  2.288E+00  5.529E+01  5.593E-01  7.961E-01
   1   13    8     7     2    1.4866E+02  1.8270E+00   1.4684E+02  0.000E+00  0.000E+00  0.000E+00  1.03478E+03  2.279E+00  5.526E+01  6.148E-01  9.906E-01
   1   13    7     7     3    1.4684E+02  1.4293E+00   1.4541E+02  0.000E+00  0.000E+00  0.000E+00  1.02969E+03  2.271E+00  5.522E+01  5.585E-01  8.531E-01
   1   13    6     8     1    1.6699E+02  8.4344E-01   1.6615E+02  0.000E+00  0.000E+00  0.000E+00  1.02480E+03  2.930E+00  4.248E+01  4.329E-01  6.495E-01
   1   13    5     8     2    1.6615E+02  9.4248E-02   1.6606E+02  0.000E+00  0.000E+00  0.000E+00  1.01855E+03  2.927E+00  4.244E+01  4.324E-01  7.265E-02
   1   13    4     8     3    1.6606E+02 -3.0036E+00   1.6906E+02  0.000E+00  0.000E+00  0.000E+00  1.01231E+03  2.936E+00  4.258E+01  4.339E+00 -2.308E-01
   1   13    3     8     4    1.6906E+02 -4.1113E+00   1.7317E+02  0.000E+00  0.000E+00  0.000E+00  1.00608E+03  2.959E+00  4.291E+01  4.373E+00 -3.134E-01
   1   13    2     8     5    1.7317E+02 -3.0373E+00   1.7621E+02  0.000E+00  0.000E+00  0.000E+00  9.99857E+02  2.982E+00  4.325E+01  4.407E+00 -2.297E-01
   1   13    1     8     6    1.7621E+02 -2.2550E+00   1.7846E+02  0.000E+00  0.000E+00  0.000E+00  9.94874E+02  2.999E+00  4.349E+01  2.659E+00 -2.827E-01
   1    8    6     9     1    3.6401E+00  0.0000E+00   3.6401E+00  0.000E+00  0.000E+00  0.000E+00  1.07999E+03  1.236E+00  4.000E+00  0.000E+00  1.412E+00
   1    8    5     9     2    3.6401E+00  0.0000E+00   3.6401E+00  0.000E+00  0.000E+00  0.000E+00  1.07949E+03  1.236E+00  4.000E+00  0.000E+00  1.412E+00



 UBDSV3 SAVING "           GW ET" ON UNIT  61 AT TIME STEP  6, STRESS PERIOD   5
 UBDSV3 SAVING "    UZF RECHARGE" ON UNIT  61 AT TIME STEP  6, STRESS PERIOD   5
 UBDSV3 SAVING " SURFACE LEAKAGE" ON UNIT  61 AT TIME STEP  6, STRESS PERIOD   5
 UBDSV3 SAVING "       HORT+DUNN" ON UNIT  61 AT TIME STEP  6, STRESS PERIOD   5
 UBDSV3 SAVING "  STORAGE CHANGE" ON UNIT  61 AT TIME STEP  6, STRESS PERIOD   5


UNSATURATED ZONE PACKAGE VOLUMETRIC BUDGET FOR  TIME STEP     6 STRESS PERIOD    5
  ------------------------------------------------------------------------------



     CUMULATIVE VOLUMES      L**3       RATES FOR THIS TIME STEP      L**3/T
     ------------------                 ------------------------

           IN:                                      IN:
           ---                                      ---
        INFILTRATION =    38634454.1248          INFILTRATION =           8.0477

          OUT:                                     OUT:
          ----                                     ----
              UZF ET =    17407329.4419                UZF ET =          16.2410
        UZF RECHARGE =       73224.0000          UZF RECHARGE =       0.0000E+00

            IN - OUT =    21153900.6829              IN - OUT =          -8.1933

          STORAGE:                                 STORAGE:
          --------                                 --------
      STORAGE CHANGE =    21153900.3610        STORAGE CHANGE =          -8.1933

 PERCENT DISCREPANCY IS DIFFERENCE BETWEEN IN-OUT MINUS CHANGE IN STORAGE
 DIVIDED BY THE AVERAGE OF IN AND OUT TIMES 100

 PERCENT DISCREPANCY =           0.00     PERCENT DISCREPANCY =           0.00






 

            AG WELLS      PERIOD    5   STEP   6
 AG WELL      1   LAYER   1   ROW     6   COL     4   RATE     0.00000    
 AG WELL      2   LAYER   1   ROW     6   COL     5   RATE     0.00000    
 AG WELL      3   LAYER   1   ROW     7   COL     4   RATE     0.00000    
 AG WELL      4   LAYER   1   ROW     7   COL     5   RATE     0.00000    
 AG WELL      5   LAYER   1   ROW     8   COL     4   RATE     0.00000    
 AG WELL      6   LAYER   1   ROW     8   COL     5   RATE     0.00000    
 
 

   DIVERSION SEGMENTS     PERIOD    5   STEP   6
 SEGMENT      9   RATE     3.64009    
 
 

        SW IRRIGATION     PERIOD    5   STEP   6
 SEGMENT      9   ROW     6   COL     4   RATE    0.606694    
 SEGMENT      9   ROW     6   COL     5   RATE    0.606694    
 SEGMENT      9   ROW     7   COL     4   RATE    0.606694    
 SEGMENT      9   ROW     7   COL     5   RATE    0.606694    
 SEGMENT      9   ROW     8   COL     4   RATE    0.606694    
 SEGMENT      9   ROW     8   COL     5   RATE    0.606694    
 
 

        GW IRRIGATION     PERIOD    5   STEP   6
 AG WELL      1   ROW     6   COL     4   RATE     0.00000    
 AG WELL      2   ROW     6   COL     5   RATE     0.00000    
 AG WELL      3   ROW     7   COL     4   RATE     0.00000    
 AG WELL      4   ROW     7   COL     5   RATE     0.00000    
 AG WELL      5   ROW     8   COL     4   RATE     0.00000    
 AG WELL      6   ROW     8   COL     5   RATE     0.00000    
 
1
  VOLUMETRIC BUDGET FOR ENTIRE MODEL AT END OF TIME STEP    6, STRESS PERIOD   5
  ------------------------------------------------------------------------------

     CUMULATIVE VOLUMES      L**3       RATES FOR THIS TIME STEP      L**3/T
     ------------------                 ------------------------

           IN:                                      IN:
           ---                                      ---
               AG WELLS  =           0.0000                 AG WELLS  =           0.0000
      DIVERSION SEGMENTS =     1467682.2500        DIVERSION SEGMENTS =           3.6401
           GW IRRIGATION =           0.0000             GW IRRIGATION =           0.0000
           SW IRRIGATION =           0.0000             SW IRRIGATION =           0.0000
        SYSTEM LOSSES GW =           0.0000          SYSTEM LOSSES GW =           0.0000
        SYSTEM LOSSES SW =           0.0000          SYSTEM LOSSES SW =           0.0000

                TOTAL IN =     1467682.2500                  TOTAL IN =           3.6401

          OUT:                                     OUT:
          ----                                     ----
               AG WELLS  =           0.0000                 AG WELLS  =           0.0000
      DIVERSION SEGMENTS =           0.0000        DIVERSION SEGMENTS =           0.0000
           GW IRRIGATION =           0.0000             GW IRRIGATION =           0.0000
           SW IRRIGATION =     1467711.5000             SW IRRIGATION =           3.6402
        SYSTEM LOSSES GW =           0.0000          SYSTEM LOSSES GW =           0.0000
        SYSTEM LOSSES SW =           0.0000          SYSTEM LOSSES SW =           0.0000

               TOTAL OUT =     1467711.5000                 TOTAL OUT =           3.6402

                IN - OUT =         -29.2500                  IN - OUT =      -7.2718E-05

     PERCENT DISCREPANCY =          -0.00         PERCENT DISCREPANCY =          -0.00



1
  VOLUMETRIC BUDGET FOR ENTIRE MODEL AT END OF TIME STEP    6, STRESS PERIOD   5
  ------------------------------------------------------------------------------

     CUMULATIVE VOLUMES      L**3       RATES FOR THIS TIME STEP      L**3/T
     ------------------                 ------------------------

           IN:                                      IN:
           ---                                      ---
             STORAGE     =     5714113.0000               STORAGE     =           2.2864
       CONSTANT HEAD     =           0.0000         CONSTANT HEAD     =           0.0000
     HEAD DEP BOUNDS     =     2429214.2500       HEAD DEP BOUNDS     =           0.2858
      STREAM LEAKAGE     =   101894600.0000        STREAM LEAKAGE     =          11.3293
        UZF RECHARGE     =       73223.9531          UZF RECHARGE     =           0.0000
               GW ET     =           0.0000                 GW ET     =           0.0000
     SURFACE LEAKAGE     =           0.0000       SURFACE LEAKAGE     =           0.0000
           AG WELLS      =           0.0000             AG WELLS      =           0.0000

                TOTAL IN =   110111152.0000                  TOTAL IN =          13.9014

          OUT:                                     OUT:
          ----                                     ----
             STORAGE     =    18771464.0000               STORAGE     =           1.1438
       CONSTANT HEAD     =           0.0000         CONSTANT HEAD     =           0.0000
     HEAD DEP BOUNDS     =     2471092.0000       HEAD DEP BOUNDS     =           0.2935
      STREAM LEAKAGE     =    88859112.0000        STREAM LEAKAGE     =          12.4321
        UZF RECHARGE     =           0.0000          UZF RECHARGE     =           0.0000
               GW ET     =       13261.3320                 GW ET     =       3.2115E-02
     SURFACE LEAKAGE     =           0.0000       SURFACE LEAKAGE     =           0.0000
           AG WELLS      =           0.0000             AG WELLS      =           0.0000

               TOTAL OUT =   110114928.0000                 TOTAL OUT =          13.9015

                IN - OUT =       -3776.0000                  IN - OUT =      -4.5776E-05

     PERCENT DISCREPANCY =          -0.00         PERCENT DISCREPANCY =          -0.00






         TIME SUMMARY AT END OF TIME STEP    6 IN STRESS PERIOD    5
                    SECONDS     MINUTES      HOURS       DAYS        YEARS
                    -----------------------------------------------------------
   TIME STEP LENGTH  87667.      1461.1      24.352      1.0147     2.77799E-03
 STRESS PERIOD TIME 5.26000E+05  8766.7      146.11      6.0880     1.66679E-02
         TOTAL TIME 8.50239E+06 1.41707E+05  2361.8      98.407     0.26942    
1
 
 SOLVING FOR HEAD 
                                                   Max.-Head-Change                         Max.-Flux-Residual
  Residual-Control   Outer-Iter.   Inner-Iter.     Column Row Layer    Maximum-Head-Change  Column Row Layer    Maximum-Flux-Residual          L2-NORM 
          0                 1           2             2   13     1      -0.7041285945E-02       2   13    1        -0.3960179815E+00      0.7458434133E+00
          0                 2           2             2   13     1       0.2486550463E-03       3   13    1         0.1471720736E-01      0.3543545547E-01
          0                 3           2             4   13     1      -0.3392775567E-03       4   13    1        -0.2054180535E-01      0.3867011453E-01
          0                 4           2             4   13     1      -0.3095783232E-03       4   13    1        -0.1874494553E-01      0.3322779381E-01
          0                 5           2             4   13     1      -0.2853844594E-03       4   13    1        -0.1727755310E-01      0.3074705867E-01
          0                 6           1             4   13     1       0.1109599091E-04       4   13    1         0.6906022527E-03      0.1248756225E-02

    ------------------------------------------------
       NWT REQUIRED            6 OUTER ITERATIONS 
       AND A TOTAL OF         11 INNER ITERATIONS.
    ------------------------------------------------

 OUTPUT CONTROL FOR STRESS PERIOD    5   TIME STEP    7
    PRINT BUDGET
    SAVE BUDGET
 UBDSV1 SAVING "         STORAGE" ON UNIT 102 AT TIME STEP  7, STRESS PERIOD   5
 UBDSV2 SAVING "   CONSTANT HEAD" ON UNIT 102 AT TIME STEP  7, STRESS PERIOD   5
 UBDSV1 SAVING "FLOW RIGHT FACE " ON UNIT 102 AT TIME STEP  7, STRESS PERIOD   5
 UBDSV1 SAVING "FLOW FRONT FACE " ON UNIT 102 AT TIME STEP  7, STRESS PERIOD   5

  HEAD DEP BOUNDS   PERIOD    5   STEP     7
 BOUNDARY      1   LAYER   1   ROW    13   COL     1   RATE   -0.293264    
 BOUNDARY      2   LAYER   1   ROW    14   COL     9   RATE    0.285762    



 STREAM LISTING     PERIOD      5   STEP        7

 LAYER ROW COL. STREAM  RCH.  FLOW INTO     FLOW TO   FLOW OUT OF   OVRLND.     DIRECT     STREAM       STREAM     STREAM     STREAM   STREAMBED  STREAMBED
                SEG.NO.  NO.  STRM. RCH.    AQUIFER    STRM. RCH.    RUNOFF     PRECIP       ET          HEAD       DEPTH      WIDTH   CONDCTNC.   GRADIENT

   1    1    1     1     1    2.1000E+01  2.2592E-01   2.0774E+01  0.000E+00  0.000E+00  0.000E+00  1.09416E+03  1.115E+00  1.220E+01  5.490E-02  1.372E+00
   1    2    2     1     2    2.0774E+01  3.4916E-01   2.0425E+01  0.000E+00  0.000E+00  0.000E+00  1.08917E+03  1.110E+00  1.214E+01  8.495E-02  1.370E+00
   1    3    3     1     3    2.0425E+01  2.9709E-01   2.0128E+01  0.000E+00  0.000E+00  0.000E+00  1.08352E+03  1.105E+00  1.206E+01  7.238E-02  1.368E+00
   1    3    4     1     4    2.0128E+01  2.7299E-01   1.9855E+01  0.000E+00  0.000E+00  0.000E+00  1.07851E+03  1.100E+00  1.200E+01  6.659E-02  1.367E+00
   1    4    5     2     1    1.7855E+01  3.1056E-01   1.7544E+01  0.000E+00  0.000E+00  0.000E+00  1.07292E+03  9.816E-01  1.200E+01  7.800E-02  1.327E+00
   1    5    6     2     2    1.7544E+01  2.3834E-01   1.7306E+01  0.000E+00  0.000E+00  0.000E+00  1.06748E+03  9.724E-01  1.200E+01  6.000E-02  1.324E+00
   1    6    6     2     3    1.7306E+01  2.3787E-01   1.7068E+01  0.000E+00  0.000E+00  0.000E+00  1.06276E+03  9.644E-01  1.200E+01  6.000E-02  1.321E+00
   1    7    6     2     4    1.7068E+01  2.3738E-01   1.6831E+01  0.000E+00  0.000E+00  0.000E+00  1.05803E+03  9.564E-01  1.200E+01  6.000E-02  1.319E+00
   1    8    6     2     5    1.6831E+01  2.3690E-01   1.6594E+01  0.000E+00  0.000E+00  0.000E+00  1.05331E+03  9.483E-01  1.200E+01  6.000E-02  1.316E+00
   1    3    5     3     1    2.0000E+00  2.8252E-01   1.7175E+00  0.000E+00  0.000E+00  0.000E+00  1.07555E+03  1.909E+00  9.636E+00  7.227E-02  1.955E+00
   1    3    6     3     2    1.7175E+00  2.4905E-01   1.4684E+00  0.000E+00  0.000E+00  0.000E+00  1.07264E+03  1.727E+00  8.909E+00  6.682E-02  1.864E+00
   1    3    7     3     3    1.4684E+00  1.9718E-01   1.2712E+00  0.000E+00  0.000E+00  0.000E+00  1.06987E+03  1.555E+00  8.218E+00  5.547E-02  1.777E+00
   1    4    8     3     4    1.2712E+00  2.2567E-01   1.0456E+00  0.000E+00  0.000E+00  0.000E+00  1.06682E+03  1.364E+00  7.455E+00  6.709E-02  1.682E+00
   1    5    8     3     5    1.0456E+00  1.5790E-01   8.8768E-01  0.000E+00  0.000E+00  0.000E+00  1.06362E+03  1.164E+00  6.655E+00  4.991E-02  1.582E+00
   1    6    8     3     6    8.8768E-01  5.5980E-02   8.3170E-01  0.000E+00  0.000E+00  0.000E+00  1.06158E+03  1.036E+00  6.145E+00  1.844E-02  1.518E+00
   1    5   10     4     1    1.0000E+01  9.0919E-02   9.9091E+00  0.000E+00  0.000E+00  0.000E+00  1.07836E+03  6.368E-01  1.000E+01  2.500E-02  1.212E+00
   1    5    9     4     2    9.9091E+00  1.8158E-01   9.7275E+00  0.000E+00  0.000E+00  0.000E+00  1.07154E+03  6.315E-01  1.000E+01  5.000E-02  1.211E+00
   1    6    8     4     3    9.7275E+00  1.2689E-01   9.6006E+00  0.000E+00  0.000E+00  0.000E+00  1.06381E+03  6.256E-01  1.000E+01  3.500E-02  1.209E+00
   1    6    8     5     1    1.0432E+01  2.2686E-01   1.0205E+01  0.000E+00  0.000E+00  0.000E+00  1.05868E+03  6.790E-01  1.542E+01  6.166E-02  1.226E+00
   1    7    7     5     2    1.0205E+01  2.7894E-01   9.9265E+00  0.000E+00  0.000E+00  0.000E+00  1.05417E+03  6.732E-01  1.519E+01  7.594E-02  1.224E+00
   1    8    7     5     3    9.9265E+00  1.9221E-01   9.7343E+00  0.000E+00  0.000E+00  0.000E+00  1.04992E+03  6.676E-01  1.497E+01  5.241E-02  1.223E+00
   1    8    6     5     4    9.7343E+00  1.3577E-01   9.5985E+00  0.000E+00  0.000E+00  0.000E+00  1.04691E+03  6.637E-01  1.482E+01  3.706E-02  1.221E+00
   1    9    6     6     1    2.2306E+01  2.4819E-01   2.2058E+01  0.000E+00  0.000E+00  0.000E+00  1.04386E+03  1.137E+00  1.200E+01  6.000E-02  1.379E+00
   1   10    7     6     2    2.2058E+01  2.4773E-01   2.1810E+01  0.000E+00  0.000E+00  0.000E+00  1.03931E+03  1.129E+00  1.200E+01  6.000E-02  1.376E+00
   1   11    7     6     3    2.1810E+01  2.4727E-01   2.1563E+01  0.000E+00  0.000E+00  0.000E+00  1.03476E+03  1.121E+00  1.200E+01  6.000E-02  1.374E+00
   1   12    7     6     4    2.1563E+01  2.4681E-01   2.1316E+01  0.000E+00  0.000E+00  0.000E+00  1.03020E+03  1.114E+00  1.200E+01  6.000E-02  1.371E+00
   1   13    7     6     5    2.1316E+01 -2.6734E-02   2.1343E+01  0.000E+00  0.000E+00  0.000E+00  1.02702E+03  1.110E+00  1.200E+01  2.400E-01 -3.713E-02
   1   14    9     7     1    1.5000E+02  1.3359E+00   1.4866E+02  0.000E+00  0.000E+00  0.000E+00  1.03987E+03  2.288E+00  5.529E+01  5.593E-01  7.962E-01
   1   13    8     7     2    1.4866E+02  1.8268E+00   1.4684E+02  0.000E+00  0.000E+00  0.000E+00  1.03478E+03  2.279E+00  5.526E+01  6.148E-01  9.905E-01
   1   13    7     7     3    1.4684E+02  1.4293E+00   1.4541E+02  0.000E+00  0.000E+00  0.000E+00  1.02969E+03  2.271E+00  5.522E+01  5.585E-01  8.531E-01
   1   13    6     8     1    1.6675E+02  8.4285E-01   1.6591E+02  0.000E+00  0.000E+00  0.000E+00  1.02480E+03  2.928E+00  4.246E+01  4.327E-01  6.494E-01
   1   13    5     8     2    1.6591E+02  9.4010E-02   1.6581E+02  0.000E+00  0.000E+00  0.000E+00  1.01855E+03  2.925E+00  4.241E+01  4.322E-01  7.250E-02
   1   13    4     8     3    1.6581E+02 -2.9788E+00   1.6879E+02  0.000E+00  0.000E+00  0.000E+00  1.01231E+03  2.935E+00  4.255E+01  4.336E+00 -2.290E-01
   1   13    3     8     4    1.6879E+02 -4.0860E+00   1.7288E+02  0.000E+00  0.000E+00  0.000E+00  1.00608E+03  2.958E+00  4.289E+01  4.370E+00 -3.117E-01
   1   13    2     8     5    1.7288E+02 -3.0100E+00   1.7589E+02  0.000E+00  0.000E+00  0.000E+00  9.99856E+02  2.981E+00  4.322E+01  4.404E+00 -2.278E-01
   1   13    1     8     6    1.7589E+02 -2.2459E+00   1.7813E+02  0.000E+00  0.000E+00  0.000E+00  9.94872E+02  2.997E+00  4.346E+01  2.657E+00 -2.817E-01
   1    8    6     9     1    3.8860E+00  0.0000E+00   3.8860E+00  0.000E+00  0.000E+00  0.000E+00  1.08004E+03  1.285E+00  4.000E+00  0.000E+00  1.428E+00
   1    8    5     9     2    3.8860E+00  0.0000E+00   3.8860E+00  0.000E+00  0.000E+00  0.000E+00  1.07954E+03  1.285E+00  4.000E+00  0.000E+00  1.428E+00



 UBDSV3 SAVING "           GW ET" ON UNIT  61 AT TIME STEP  7, STRESS PERIOD   5
 UBDSV3 SAVING "    UZF RECHARGE" ON UNIT  61 AT TIME STEP  7, STRESS PERIOD   5
 UBDSV3 SAVING " SURFACE LEAKAGE" ON UNIT  61 AT TIME STEP  7, STRESS PERIOD   5
 UBDSV3 SAVING "       HORT+DUNN" ON UNIT  61 AT TIME STEP  7, STRESS PERIOD   5
 UBDSV3 SAVING "  STORAGE CHANGE" ON UNIT  61 AT TIME STEP  7, STRESS PERIOD   5


UNSATURATED ZONE PACKAGE VOLUMETRIC BUDGET FOR  TIME STEP     7 STRESS PERIOD    5
  ------------------------------------------------------------------------------



     CUMULATIVE VOLUMES      L**3       RATES FOR THIS TIME STEP      L**3/T
     ------------------                 ------------------------

           IN:                                      IN:
           ---                                      ---
        INFILTRATION =    39361525.4324          INFILTRATION =           8.2936

          OUT:                                     OUT:
          ----                                     ----
              UZF ET =    18823502.1187                UZF ET =          16.1541
        UZF RECHARGE =       73224.0000          UZF RECHARGE =       0.0000E+00

            IN - OUT =    20464799.3137              IN - OUT =          -7.8605

          STORAGE:                                 STORAGE:
          --------                                 --------
      STORAGE CHANGE =    20464798.9887        STORAGE CHANGE =          -7.8605

 PERCENT DISCREPANCY IS DIFFERENCE BETWEEN IN-OUT MINUS CHANGE IN STORAGE
 DIVIDED BY THE AVERAGE OF IN AND OUT TIMES 100

 PERCENT DISCREPANCY =           0.00     PERCENT DISCREPANCY =           0.00






 

            AG WELLS      PERIOD    5   STEP   7
 AG WELL      1   LAYER   1   ROW     6   COL     4   RATE     0.00000    
 AG WELL      2   LAYER   1   ROW     6   COL     5   RATE     0.00000    
 AG WELL      3   LAYER   1   ROW     7   COL     4   RATE     0.00000    
 AG WELL      4   LAYER   1   ROW     7   COL     5   RATE     0.00000    
 AG WELL      5   LAYER   1   ROW     8   COL     4   RATE     0.00000    
 AG WELL      6   LAYER   1   ROW     8   COL     5   RATE     0.00000    
 
 

   DIVERSION SEGMENTS     PERIOD    5   STEP   7
 SEGMENT      9   RATE     3.88601    
 
 

        SW IRRIGATION     PERIOD    5   STEP   7
 SEGMENT      9   ROW     6   COL     4   RATE    0.647682    
 SEGMENT      9   ROW     6   COL     5   RATE    0.647682    
 SEGMENT      9   ROW     7   COL     4   RATE    0.647682    
 SEGMENT      9   ROW     7   COL     5   RATE    0.647682    
 SEGMENT      9   ROW     8   COL     4   RATE    0.647682    
 SEGMENT      9   ROW     8   COL     5   RATE    0.647682    
 
 

        GW IRRIGATION     PERIOD    5   STEP   7
 AG WELL      1   ROW     6   COL     4   RATE     0.00000    
 AG WELL      2   ROW     6   COL     5   RATE     0.00000    
 AG WELL      3   ROW     7   COL     4   RATE     0.00000    
 AG WELL      4   ROW     7   COL     5   RATE     0.00000    
 AG WELL      5   ROW     8   COL     4   RATE     0.00000    
 AG WELL      6   ROW     8   COL     5   RATE     0.00000    
 
1
  VOLUMETRIC BUDGET FOR ENTIRE MODEL AT END OF TIME STEP    7, STRESS PERIOD   5
  ------------------------------------------------------------------------------

     CUMULATIVE VOLUMES      L**3       RATES FOR THIS TIME STEP      L**3/T
     ------------------                 ------------------------

           IN:                                      IN:
           ---                                      ---
               AG WELLS  =           0.0000                 AG WELLS  =           0.0000
      DIVERSION SEGMENTS =     1808355.8750        DIVERSION SEGMENTS =           3.8860
           GW IRRIGATION =           0.0000             GW IRRIGATION =           0.0000
           SW IRRIGATION =           0.0000             SW IRRIGATION =           0.0000
        SYSTEM LOSSES GW =           0.0000          SYSTEM LOSSES GW =           0.0000
        SYSTEM LOSSES SW =           0.0000          SYSTEM LOSSES SW =           0.0000

                TOTAL IN =     1808355.8750                  TOTAL IN =           3.8860

          OUT:                                     OUT:
          ----                                     ----
               AG WELLS  =           0.0000                 AG WELLS  =           0.0000
      DIVERSION SEGMENTS =           0.0000        DIVERSION SEGMENTS =           0.0000
           GW IRRIGATION =           0.0000             GW IRRIGATION =           0.0000
           SW IRRIGATION =     1808392.0000             SW IRRIGATION =           3.8861
        SYSTEM LOSSES GW =           0.0000          SYSTEM LOSSES GW =           0.0000
        SYSTEM LOSSES SW =           0.0000          SYSTEM LOSSES SW =           0.0000

               TOTAL OUT =     1808392.0000                 TOTAL OUT =           3.8861

                IN - OUT =         -36.1250                  IN - OUT =      -7.7724E-05

     PERCENT DISCREPANCY =          -0.00         PERCENT DISCREPANCY =          -0.00



1
  VOLUMETRIC BUDGET FOR ENTIRE MODEL AT END OF TIME STEP    7, STRESS PERIOD   5
  ------------------------------------------------------------------------------

     CUMULATIVE VOLUMES      L**3       RATES FOR THIS TIME STEP      L**3/T
     ------------------                 ------------------------

           IN:                                      IN:
           ---                                      ---
             STORAGE     =     5903960.0000               STORAGE     =           2.1656
       CONSTANT HEAD     =           0.0000         CONSTANT HEAD     =           0.0000
     HEAD DEP BOUNDS     =     2454266.0000       HEAD DEP BOUNDS     =           0.2858
      STREAM LEAKAGE     =   102887560.0000        STREAM LEAKAGE     =          11.3266
        UZF RECHARGE     =       73223.9531          UZF RECHARGE     =           0.0000
               GW ET     =           0.0000                 GW ET     =           0.0000
     SURFACE LEAKAGE     =           0.0000       SURFACE LEAKAGE     =           0.0000
           AG WELLS      =           0.0000             AG WELLS      =           0.0000

                TOTAL IN =   111319008.0000                  TOTAL IN =          13.7779

          OUT:                                     OUT:
          ----                                     ----
             STORAGE     =    18869402.0000               STORAGE     =           1.1172
       CONSTANT HEAD     =           0.0000         CONSTANT HEAD     =           0.0000
     HEAD DEP BOUNDS     =     2496801.5000       HEAD DEP BOUNDS     =           0.2933
      STREAM LEAKAGE     =    89941568.0000        STREAM LEAKAGE     =          12.3474
        UZF RECHARGE     =           0.0000          UZF RECHARGE     =           0.0000
               GW ET     =       15021.5137                 GW ET     =       2.0078E-02
     SURFACE LEAKAGE     =           0.0000       SURFACE LEAKAGE     =           0.0000
           AG WELLS      =           0.0000             AG WELLS      =           0.0000

               TOTAL OUT =   111322800.0000                 TOTAL OUT =          13.7780

                IN - OUT =       -3792.0000                  IN - OUT =      -7.1526E-05

     PERCENT DISCREPANCY =          -0.00         PERCENT DISCREPANCY =          -0.00






         TIME SUMMARY AT END OF TIME STEP    7 IN STRESS PERIOD    5
                    SECONDS     MINUTES      HOURS       DAYS        YEARS
                    -----------------------------------------------------------
   TIME STEP LENGTH  87667.      1461.1      24.352      1.0147     2.77799E-03
 STRESS PERIOD TIME 6.13667E+05  10228.      170.46      7.1026     1.94459E-02
         TOTAL TIME 8.59006E+06 1.43168E+05  2386.1      99.422     0.27220    
1
 
 SOLVING FOR HEAD 
                                                   Max.-Head-Change                         Max.-Flux-Residual
  Residual-Control   Outer-Iter.   Inner-Iter.     Column Row Layer    Maximum-Head-Change  Column Row Layer    Maximum-Flux-Residual          L2-NORM 
          0                 1           2             2   13     1      -0.6416273235E-02       2   13    1        -0.3608756514E+00      0.6798513990E+00
          0                 2           2             3    2     1      -0.2166606229E-03       3    2    1        -0.1160920221E-01      0.3181162850E-01
          0                 3           2             4   13     1      -0.2720572364E-03       4   13    1        -0.1647271691E-01      0.3136786453E-01
          0                 4           2             4   13     1      -0.2909844907E-03       4   13    1        -0.1761976552E-01      0.3122110377E-01
          0                 5           2             4   13     1      -0.2267005057E-03       4   13    1        -0.1372561261E-01      0.2441438401E-01
          0                 6           1             4   13     1       0.8819968823E-05       4   13    1         0.5489860059E-03      0.9902488028E-03

    ------------------------------------------------
       NWT REQUIRED            6 OUTER ITERATIONS 
       AND A TOTAL OF         11 INNER ITERATIONS.
    ------------------------------------------------

 OUTPUT CONTROL FOR STRESS PERIOD    5   TIME STEP    8
    PRINT BUDGET
    SAVE BUDGET
 UBDSV1 SAVING "         STORAGE" ON UNIT 102 AT TIME STEP  8, STRESS PERIOD   5
 UBDSV2 SAVING "   CONSTANT HEAD" ON UNIT 102 AT TIME STEP  8, STRESS PERIOD   5
 UBDSV1 SAVING "FLOW RIGHT FACE " ON UNIT 102 AT TIME STEP  8, STRESS PERIOD   5
 UBDSV1 SAVING "FLOW FRONT FACE " ON UNIT 102 AT TIME STEP  8, STRESS PERIOD   5

  HEAD DEP BOUNDS   PERIOD    5   STEP     8
 BOUNDARY      1   LAYER   1   ROW    13   COL     1   RATE   -0.293088    
 BOUNDARY      2   LAYER   1   ROW    14   COL     9   RATE    0.285763    



 STREAM LISTING     PERIOD      5   STEP        8

 LAYER ROW COL. STREAM  RCH.  FLOW INTO     FLOW TO   FLOW OUT OF   OVRLND.     DIRECT     STREAM       STREAM     STREAM     STREAM   STREAMBED  STREAMBED
                SEG.NO.  NO.  STRM. RCH.    AQUIFER    STRM. RCH.    RUNOFF     PRECIP       ET          HEAD       DEPTH      WIDTH   CONDCTNC.   GRADIENT

   1    1    1     1     1    2.1000E+01  2.2592E-01   2.0774E+01  0.000E+00  0.000E+00  0.000E+00  1.09416E+03  1.115E+00  1.220E+01  5.490E-02  1.372E+00
   1    2    2     1     2    2.0774E+01  3.4916E-01   2.0425E+01  0.000E+00  0.000E+00  0.000E+00  1.08917E+03  1.110E+00  1.214E+01  8.495E-02  1.370E+00
   1    3    3     1     3    2.0425E+01  2.9709E-01   2.0128E+01  0.000E+00  0.000E+00  0.000E+00  1.08352E+03  1.105E+00  1.206E+01  7.238E-02  1.368E+00
   1    3    4     1     4    2.0128E+01  2.7299E-01   1.9855E+01  0.000E+00  0.000E+00  0.000E+00  1.07851E+03  1.100E+00  1.200E+01  6.659E-02  1.367E+00
   1    4    5     2     1    1.7855E+01  3.1056E-01   1.7544E+01  0.000E+00  0.000E+00  0.000E+00  1.07292E+03  9.816E-01  1.200E+01  7.800E-02  1.327E+00
   1    5    6     2     2    1.7544E+01  2.3834E-01   1.7306E+01  0.000E+00  0.000E+00  0.000E+00  1.06748E+03  9.724E-01  1.200E+01  6.000E-02  1.324E+00
   1    6    6     2     3    1.7306E+01  2.3787E-01   1.7068E+01  0.000E+00  0.000E+00  0.000E+00  1.06276E+03  9.644E-01  1.200E+01  6.000E-02  1.321E+00
   1    7    6     2     4    1.7068E+01  2.3738E-01   1.6831E+01  0.000E+00  0.000E+00  0.000E+00  1.05803E+03  9.564E-01  1.200E+01  6.000E-02  1.319E+00
   1    8    6     2     5    1.6831E+01  2.3690E-01   1.6594E+01  0.000E+00  0.000E+00  0.000E+00  1.05331E+03  9.483E-01  1.200E+01  6.000E-02  1.316E+00
   1    3    5     3     1    2.0000E+00  2.8252E-01   1.7175E+00  0.000E+00  0.000E+00  0.000E+00  1.07555E+03  1.909E+00  9.636E+00  7.227E-02  1.955E+00
   1    3    6     3     2    1.7175E+00  2.4905E-01   1.4684E+00  0.000E+00  0.000E+00  0.000E+00  1.07264E+03  1.727E+00  8.909E+00  6.682E-02  1.864E+00
   1    3    7     3     3    1.4684E+00  1.9718E-01   1.2712E+00  0.000E+00  0.000E+00  0.000E+00  1.06987E+03  1.555E+00  8.218E+00  5.547E-02  1.777E+00
   1    4    8     3     4    1.2712E+00  2.2567E-01   1.0456E+00  0.000E+00  0.000E+00  0.000E+00  1.06682E+03  1.364E+00  7.455E+00  6.709E-02  1.682E+00
   1    5    8     3     5    1.0456E+00  1.5790E-01   8.8768E-01  0.000E+00  0.000E+00  0.000E+00  1.06362E+03  1.164E+00  6.655E+00  4.991E-02  1.582E+00
   1    6    8     3     6    8.8768E-01  5.5980E-02   8.3170E-01  0.000E+00  0.000E+00  0.000E+00  1.06158E+03  1.036E+00  6.145E+00  1.844E-02  1.518E+00
   1    5   10     4     1    1.0000E+01  9.0919E-02   9.9091E+00  0.000E+00  0.000E+00  0.000E+00  1.07836E+03  6.368E-01  1.000E+01  2.500E-02  1.212E+00
   1    5    9     4     2    9.9091E+00  1.8158E-01   9.7275E+00  0.000E+00  0.000E+00  0.000E+00  1.07154E+03  6.315E-01  1.000E+01  5.000E-02  1.211E+00
   1    6    8     4     3    9.7275E+00  1.2689E-01   9.6006E+00  0.000E+00  0.000E+00  0.000E+00  1.06381E+03  6.256E-01  1.000E+01  3.500E-02  1.209E+00
   1    6    8     5     1    1.0432E+01  2.2686E-01   1.0205E+01  0.000E+00  0.000E+00  0.000E+00  1.05868E+03  6.790E-01  1.542E+01  6.166E-02  1.226E+00
   1    7    7     5     2    1.0205E+01  2.7894E-01   9.9265E+00  0.000E+00  0.000E+00  0.000E+00  1.05417E+03  6.732E-01  1.519E+01  7.594E-02  1.224E+00
   1    8    7     5     3    9.9265E+00  1.9221E-01   9.7343E+00  0.000E+00  0.000E+00  0.000E+00  1.04992E+03  6.676E-01  1.497E+01  5.241E-02  1.223E+00
   1    8    6     5     4    9.7343E+00  1.3577E-01   9.5985E+00  0.000E+00  0.000E+00  0.000E+00  1.04691E+03  6.637E-01  1.482E+01  3.706E-02  1.221E+00
   1    9    6     6     1    2.2736E+01  2.4898E-01   2.2487E+01  0.000E+00  0.000E+00  0.000E+00  1.04388E+03  1.150E+00  1.200E+01  6.000E-02  1.383E+00
   1   10    7     6     2    2.2487E+01  2.4852E-01   2.2239E+01  0.000E+00  0.000E+00  0.000E+00  1.03932E+03  1.142E+00  1.200E+01  6.000E-02  1.381E+00
   1   11    7     6     3    2.2239E+01  2.4807E-01   2.1991E+01  0.000E+00  0.000E+00  0.000E+00  1.03477E+03  1.134E+00  1.200E+01  6.000E-02  1.378E+00
   1   12    7     6     4    2.1991E+01  2.4761E-01   2.1743E+01  0.000E+00  0.000E+00  0.000E+00  1.03022E+03  1.127E+00  1.200E+01  6.000E-02  1.376E+00
   1   13    7     6     5    2.1743E+01 -2.3547E-02   2.1767E+01  0.000E+00  0.000E+00  0.000E+00  1.02703E+03  1.123E+00  1.200E+01  2.400E-01 -3.270E-02
   1   14    9     7     1    1.5000E+02  1.3359E+00   1.4866E+02  0.000E+00  0.000E+00  0.000E+00  1.03987E+03  2.288E+00  5.529E+01  5.593E-01  7.962E-01
   1   13    8     7     2    1.4866E+02  1.8267E+00   1.4684E+02  0.000E+00  0.000E+00  0.000E+00  1.03478E+03  2.279E+00  5.526E+01  6.148E-01  9.905E-01
   1   13    7     7     3    1.4684E+02  1.4293E+00   1.4541E+02  0.000E+00  0.000E+00  0.000E+00  1.02969E+03  2.271E+00  5.522E+01  5.585E-01  8.531E-01
   1   13    6     8     1    1.6717E+02  8.4538E-01   1.6633E+02  0.000E+00  0.000E+00  0.000E+00  1.02481E+03  2.931E+00  4.250E+01  4.331E-01  6.507E-01
   1   13    5     8     2    1.6633E+02  9.5806E-02   1.6623E+02  0.000E+00  0.000E+00  0.000E+00  1.01855E+03  2.928E+00  4.245E+01  4.326E-01  7.382E-02
   1   13    4     8     3    1.6623E+02 -2.9431E+00   1.6918E+02  0.000E+00  0.000E+00  0.000E+00  1.01231E+03  2.937E+00  4.259E+01  4.340E+00 -2.260E-01
   1   13    3     8     4    1.6918E+02 -4.0517E+00   1.7323E+02  0.000E+00  0.000E+00  0.000E+00  1.00609E+03  2.960E+00  4.292E+01  4.374E+00 -3.088E-01
   1   13    2     8     5    1.7323E+02 -2.9720E+00   1.7620E+02  0.000E+00  0.000E+00  0.000E+00  9.99858E+02  2.983E+00  4.325E+01  4.407E+00 -2.248E-01
   1   13    1     8     6    1.7620E+02 -2.2299E+00   1.7843E+02  0.000E+00  0.000E+00  0.000E+00  9.94874E+02  2.999E+00  4.349E+01  2.659E+00 -2.795E-01
   1    8    6     9     1    3.4561E+00  0.0000E+00   3.4561E+00  0.000E+00  0.000E+00  0.000E+00  1.07995E+03  1.198E+00  4.000E+00  0.000E+00  1.399E+00
   1    8    5     9     2    3.4561E+00  0.0000E+00   3.4561E+00  0.000E+00  0.000E+00  0.000E+00  1.07945E+03  1.198E+00  4.000E+00  0.000E+00  1.399E+00



 UBDSV3 SAVING "           GW ET" ON UNIT  61 AT TIME STEP  8, STRESS PERIOD   5
 UBDSV3 SAVING "    UZF RECHARGE" ON UNIT  61 AT TIME STEP  8, STRESS PERIOD   5
 UBDSV3 SAVING " SURFACE LEAKAGE" ON UNIT  61 AT TIME STEP  8, STRESS PERIOD   5
 UBDSV3 SAVING "       HORT+DUNN" ON UNIT  61 AT TIME STEP  8, STRESS PERIOD   5
 UBDSV3 SAVING "  STORAGE CHANGE" ON UNIT  61 AT TIME STEP  8, STRESS PERIOD   5


UNSATURATED ZONE PACKAGE VOLUMETRIC BUDGET FOR  TIME STEP     8 STRESS PERIOD    5
  ------------------------------------------------------------------------------



     CUMULATIVE VOLUMES      L**3       RATES FOR THIS TIME STEP      L**3/T
     ------------------                 ------------------------

           IN:                                      IN:
           ---                                      ---
        INFILTRATION =    40050903.1072          INFILTRATION =           7.8636

          OUT:                                     OUT:
          ----                                     ----
              UZF ET =    20243112.9907                UZF ET =          16.1933
        UZF RECHARGE =       73224.0000          UZF RECHARGE =       0.0000E+00

            IN - OUT =    19734566.1165              IN - OUT =          -8.3297

          STORAGE:                                 STORAGE:
          --------                                 --------
      STORAGE CHANGE =    19734565.7959        STORAGE CHANGE =          -8.3297

 PERCENT DISCREPANCY IS DIFFERENCE BETWEEN IN-OUT MINUS CHANGE IN STORAGE
 DIVIDED BY THE AVERAGE OF IN AND OUT TIMES 100

 PERCENT DISCREPANCY =           0.00     PERCENT DISCREPANCY =           0.00






 

            AG WELLS      PERIOD    5   STEP   8
 AG WELL      1   LAYER   1   ROW     6   COL     4   RATE     0.00000    
 AG WELL      2   LAYER   1   ROW     6   COL     5   RATE     0.00000    
 AG WELL      3   LAYER   1   ROW     7   COL     4   RATE     0.00000    
 AG WELL      4   LAYER   1   ROW     7   COL     5   RATE     0.00000    
 AG WELL      5   LAYER   1   ROW     8   COL     4   RATE     0.00000    
 AG WELL      6   LAYER   1   ROW     8   COL     5   RATE     0.00000    
 
 

   DIVERSION SEGMENTS     PERIOD    5   STEP   8
 SEGMENT      9   RATE     3.45605    
 
 

        SW IRRIGATION     PERIOD    5   STEP   8
 SEGMENT      9   ROW     6   COL     4   RATE    0.576021    
 SEGMENT      9   ROW     6   COL     5   RATE    0.576021    
 SEGMENT      9   ROW     7   COL     4   RATE    0.576021    
 SEGMENT      9   ROW     7   COL     5   RATE    0.576021    
 SEGMENT      9   ROW     8   COL     4   RATE    0.576021    
 SEGMENT      9   ROW     8   COL     5   RATE    0.576021    
 
 

        GW IRRIGATION     PERIOD    5   STEP   8
 AG WELL      1   ROW     6   COL     4   RATE     0.00000    
 AG WELL      2   ROW     6   COL     5   RATE     0.00000    
 AG WELL      3   ROW     7   COL     4   RATE     0.00000    
 AG WELL      4   ROW     7   COL     5   RATE     0.00000    
 AG WELL      5   ROW     8   COL     4   RATE     0.00000    
 AG WELL      6   ROW     8   COL     5   RATE     0.00000    
 
1
  VOLUMETRIC BUDGET FOR ENTIRE MODEL AT END OF TIME STEP    8, STRESS PERIOD   5
  ------------------------------------------------------------------------------

     CUMULATIVE VOLUMES      L**3       RATES FOR THIS TIME STEP      L**3/T
     ------------------                 ------------------------

           IN:                                      IN:
           ---                                      ---
               AG WELLS  =           0.0000                 AG WELLS  =           0.0000
      DIVERSION SEGMENTS =     2111336.7500        DIVERSION SEGMENTS =           3.4561
           GW IRRIGATION =           0.0000             GW IRRIGATION =           0.0000
           SW IRRIGATION =           0.0000             SW IRRIGATION =           0.0000
        SYSTEM LOSSES GW =           0.0000          SYSTEM LOSSES GW =           0.0000
        SYSTEM LOSSES SW =           0.0000          SYSTEM LOSSES SW =           0.0000

                TOTAL IN =     2111336.7500                  TOTAL IN =           3.4561

          OUT:                                     OUT:
          ----                                     ----
               AG WELLS  =           0.0000                 AG WELLS  =           0.0000
      DIVERSION SEGMENTS =           0.0000        DIVERSION SEGMENTS =           0.0000
           GW IRRIGATION =           0.0000             GW IRRIGATION =           0.0000
           SW IRRIGATION =     2111378.7500             SW IRRIGATION =           3.4561
        SYSTEM LOSSES GW =           0.0000          SYSTEM LOSSES GW =           0.0000
        SYSTEM LOSSES SW =           0.0000          SYSTEM LOSSES SW =           0.0000

               TOTAL OUT =     2111378.7500                 TOTAL OUT =           3.4561

                IN - OUT =         -42.0000                  IN - OUT =      -6.8903E-05

     PERCENT DISCREPANCY =          -0.00         PERCENT DISCREPANCY =          -0.00



1
  VOLUMETRIC BUDGET FOR ENTIRE MODEL AT END OF TIME STEP    8, STRESS PERIOD   5
  ------------------------------------------------------------------------------

     CUMULATIVE VOLUMES      L**3       RATES FOR THIS TIME STEP      L**3/T
     ------------------                 ------------------------

           IN:                                      IN:
           ---                                      ---
             STORAGE     =     6079426.5000               STORAGE     =           2.0015
       CONSTANT HEAD     =           0.0000         CONSTANT HEAD     =           0.0000
     HEAD DEP BOUNDS     =     2479318.0000       HEAD DEP BOUNDS     =           0.2858
      STREAM LEAKAGE     =   103881176.0000        STREAM LEAKAGE     =          11.3340
        UZF RECHARGE     =       73223.9531          UZF RECHARGE     =           0.0000
               GW ET     =           0.0000                 GW ET     =           0.0000
     SURFACE LEAKAGE     =           0.0000       SURFACE LEAKAGE     =           0.0000
           AG WELLS      =           0.0000             AG WELLS      =           0.0000

                TOTAL IN =   112513144.0000                  TOTAL IN =          13.6213

          OUT:                                     OUT:
          ----                                     ----
             STORAGE     =    18965398.0000               STORAGE     =           1.0950
       CONSTANT HEAD     =           0.0000         CONSTANT HEAD     =           0.0000
     HEAD DEP BOUNDS     =     2522495.5000       HEAD DEP BOUNDS     =           0.2931
      STREAM LEAKAGE     =    91012880.0000        STREAM LEAKAGE     =          12.2202
        UZF RECHARGE     =           0.0000          UZF RECHARGE     =           0.0000
               GW ET     =       16160.4121                 GW ET     =       1.2991E-02
     SURFACE LEAKAGE     =           0.0000       SURFACE LEAKAGE     =           0.0000
           AG WELLS      =           0.0000             AG WELLS      =           0.0000

               TOTAL OUT =   112516936.0000                 TOTAL OUT =          13.6213

                IN - OUT =       -3792.0000                  IN - OUT =      -5.5313E-05

     PERCENT DISCREPANCY =          -0.00         PERCENT DISCREPANCY =          -0.00






         TIME SUMMARY AT END OF TIME STEP    8 IN STRESS PERIOD    5
                    SECONDS     MINUTES      HOURS       DAYS        YEARS
                    -----------------------------------------------------------
   TIME STEP LENGTH  87667.      1461.1      24.352      1.0147     2.77799E-03
 STRESS PERIOD TIME 7.01333E+05  11689.      194.81      8.1173     2.22239E-02
         TOTAL TIME 8.67773E+06 1.44629E+05  2410.5      100.44     0.27498    
1
 
 SOLVING FOR HEAD 
                                                   Max.-Head-Change                         Max.-Flux-Residual
  Residual-Control   Outer-Iter.   Inner-Iter.     Column Row Layer    Maximum-Head-Change  Column Row Layer    Maximum-Flux-Residual          L2-NORM 
          0                 1           2             2   13     1      -0.5848309385E-02       2   13    1        -0.3289365063E+00      0.6234870147E+00
          0                 2           2             3    2     1      -0.2156832147E-03       3    2    1        -0.1155633939E-01      0.2849009985E-01
          0                 3           2             4   13     1      -0.2965051399E-03       4   13    1        -0.1795248326E-01      0.3403323059E-01
          0                 4           2             4   13     1      -0.2875944041E-03       4   13    1        -0.1741429802E-01      0.3082429647E-01
          0                 5           2             4   13     1      -0.2687505522E-03       4   13    1        -0.1627107517E-01      0.2891575890E-01
          0                 6           1             4   13     1       0.1044972057E-04       4   13    1         0.6504001121E-03      0.1212745540E-02

    ------------------------------------------------
       NWT REQUIRED            6 OUTER ITERATIONS 
       AND A TOTAL OF         11 INNER ITERATIONS.
    ------------------------------------------------

 OUTPUT CONTROL FOR STRESS PERIOD    5   TIME STEP    9
    PRINT BUDGET
    SAVE BUDGET
 UBDSV1 SAVING "         STORAGE" ON UNIT 102 AT TIME STEP  9, STRESS PERIOD   5
 UBDSV2 SAVING "   CONSTANT HEAD" ON UNIT 102 AT TIME STEP  9, STRESS PERIOD   5
 UBDSV1 SAVING "FLOW RIGHT FACE " ON UNIT 102 AT TIME STEP  9, STRESS PERIOD   5
 UBDSV1 SAVING "FLOW FRONT FACE " ON UNIT 102 AT TIME STEP  9, STRESS PERIOD   5

  HEAD DEP BOUNDS   PERIOD    5   STEP     9
 BOUNDARY      1   LAYER   1   ROW    13   COL     1   RATE   -0.292917    
 BOUNDARY      2   LAYER   1   ROW    14   COL     9   RATE    0.285764    



 STREAM LISTING     PERIOD      5   STEP        9

 LAYER ROW COL. STREAM  RCH.  FLOW INTO     FLOW TO   FLOW OUT OF   OVRLND.     DIRECT     STREAM       STREAM     STREAM     STREAM   STREAMBED  STREAMBED
                SEG.NO.  NO.  STRM. RCH.    AQUIFER    STRM. RCH.    RUNOFF     PRECIP       ET          HEAD       DEPTH      WIDTH   CONDCTNC.   GRADIENT

   1    1    1     1     1    2.1000E+01  2.2592E-01   2.0774E+01  0.000E+00  0.000E+00  0.000E+00  1.09416E+03  1.115E+00  1.220E+01  5.490E-02  1.372E+00
   1    2    2     1     2    2.0774E+01  3.4916E-01   2.0425E+01  0.000E+00  0.000E+00  0.000E+00  1.08917E+03  1.110E+00  1.214E+01  8.495E-02  1.370E+00
   1    3    3     1     3    2.0425E+01  2.9709E-01   2.0128E+01  0.000E+00  0.000E+00  0.000E+00  1.08352E+03  1.105E+00  1.206E+01  7.238E-02  1.368E+00
   1    3    4     1     4    2.0128E+01  2.7299E-01   1.9855E+01  0.000E+00  0.000E+00  0.000E+00  1.07851E+03  1.100E+00  1.200E+01  6.659E-02  1.367E+00
   1    4    5     2     1    1.7855E+01  3.1056E-01   1.7544E+01  0.000E+00  0.000E+00  0.000E+00  1.07292E+03  9.816E-01  1.200E+01  7.800E-02  1.327E+00
   1    5    6     2     2    1.7544E+01  2.3834E-01   1.7306E+01  0.000E+00  0.000E+00  0.000E+00  1.06748E+03  9.724E-01  1.200E+01  6.000E-02  1.324E+00
   1    6    6     2     3    1.7306E+01  2.3787E-01   1.7068E+01  0.000E+00  0.000E+00  0.000E+00  1.06276E+03  9.644E-01  1.200E+01  6.000E-02  1.321E+00
   1    7    6     2     4    1.7068E+01  2.3738E-01   1.6831E+01  0.000E+00  0.000E+00  0.000E+00  1.05803E+03  9.564E-01  1.200E+01  6.000E-02  1.319E+00
   1    8    6     2     5    1.6831E+01  2.3690E-01   1.6594E+01  0.000E+00  0.000E+00  0.000E+00  1.05331E+03  9.483E-01  1.200E+01  6.000E-02  1.316E+00
   1    3    5     3     1    2.0000E+00  2.8252E-01   1.7175E+00  0.000E+00  0.000E+00  0.000E+00  1.07555E+03  1.909E+00  9.636E+00  7.227E-02  1.955E+00
   1    3    6     3     2    1.7175E+00  2.4905E-01   1.4684E+00  0.000E+00  0.000E+00  0.000E+00  1.07264E+03  1.727E+00  8.909E+00  6.682E-02  1.864E+00
   1    3    7     3     3    1.4684E+00  1.9718E-01   1.2712E+00  0.000E+00  0.000E+00  0.000E+00  1.06987E+03  1.555E+00  8.218E+00  5.547E-02  1.777E+00
   1    4    8     3     4    1.2712E+00  2.2567E-01   1.0456E+00  0.000E+00  0.000E+00  0.000E+00  1.06682E+03  1.364E+00  7.455E+00  6.709E-02  1.682E+00
   1    5    8     3     5    1.0456E+00  1.5790E-01   8.8768E-01  0.000E+00  0.000E+00  0.000E+00  1.06362E+03  1.164E+00  6.655E+00  4.991E-02  1.582E+00
   1    6    8     3     6    8.8768E-01  5.5980E-02   8.3170E-01  0.000E+00  0.000E+00  0.000E+00  1.06158E+03  1.036E+00  6.145E+00  1.844E-02  1.518E+00
   1    5   10     4     1    1.0000E+01  9.0919E-02   9.9091E+00  0.000E+00  0.000E+00  0.000E+00  1.07836E+03  6.368E-01  1.000E+01  2.500E-02  1.212E+00
   1    5    9     4     2    9.9091E+00  1.8158E-01   9.7275E+00  0.000E+00  0.000E+00  0.000E+00  1.07154E+03  6.315E-01  1.000E+01  5.000E-02  1.211E+00
   1    6    8     4     3    9.7275E+00  1.2689E-01   9.6006E+00  0.000E+00  0.000E+00  0.000E+00  1.06381E+03  6.256E-01  1.000E+01  3.500E-02  1.209E+00
   1    6    8     5     1    1.0432E+01  2.2686E-01   1.0205E+01  0.000E+00  0.000E+00  0.000E+00  1.05868E+03  6.790E-01  1.542E+01  6.166E-02  1.226E+00
   1    7    7     5     2    1.0205E+01  2.7894E-01   9.9265E+00  0.000E+00  0.000E+00  0.000E+00  1.05417E+03  6.732E-01  1.519E+01  7.594E-02  1.224E+00
   1    8    7     5     3    9.9265E+00  1.9221E-01   9.7343E+00  0.000E+00  0.000E+00  0.000E+00  1.04992E+03  6.676E-01  1.497E+01  5.241E-02  1.223E+00
   1    8    6     5     4    9.7343E+00  1.3577E-01   9.5985E+00  0.000E+00  0.000E+00  0.000E+00  1.04691E+03  6.637E-01  1.482E+01  3.706E-02  1.221E+00
   1    9    6     6     1    2.2533E+01  2.4861E-01   2.2284E+01  0.000E+00  0.000E+00  0.000E+00  1.04387E+03  1.143E+00  1.200E+01  6.000E-02  1.381E+00
   1   10    7     6     2    2.2284E+01  2.4815E-01   2.2036E+01  0.000E+00  0.000E+00  0.000E+00  1.03932E+03  1.136E+00  1.200E+01  6.000E-02  1.379E+00
   1   11    7     6     3    2.2036E+01  2.4769E-01   2.1789E+01  0.000E+00  0.000E+00  0.000E+00  1.03476E+03  1.128E+00  1.200E+01  6.000E-02  1.376E+00
   1   12    7     6     4    2.1789E+01  2.4723E-01   2.1541E+01  0.000E+00  0.000E+00  0.000E+00  1.03021E+03  1.121E+00  1.200E+01  6.000E-02  1.374E+00
   1   13    7     6     5    2.1541E+01 -2.5024E-02   2.1566E+01  0.000E+00  0.000E+00  0.000E+00  1.02703E+03  1.117E+00  1.200E+01  2.400E-01 -3.475E-02
   1   14    9     7     1    1.5000E+02  1.3359E+00   1.4866E+02  0.000E+00  0.000E+00  0.000E+00  1.03987E+03  2.288E+00  5.529E+01  5.593E-01  7.962E-01
   1   13    8     7     2    1.4866E+02  1.8266E+00   1.4684E+02  0.000E+00  0.000E+00  0.000E+00  1.03478E+03  2.279E+00  5.526E+01  6.148E-01  9.904E-01
   1   13    7     7     3    1.4684E+02  1.4294E+00   1.4541E+02  0.000E+00  0.000E+00  0.000E+00  1.02969E+03  2.271E+00  5.522E+01  5.585E-01  8.532E-01
   1   13    6     8     1    1.6697E+02  8.4494E-01   1.6613E+02  0.000E+00  0.000E+00  0.000E+00  1.02480E+03  2.930E+00  4.248E+01  4.329E-01  6.506E-01
   1   13    5     8     2    1.6613E+02  9.5708E-02   1.6603E+02  0.000E+00  0.000E+00  0.000E+00  1.01855E+03  2.927E+00  4.243E+01  4.324E-01  7.378E-02
   1   13    4     8     3    1.6603E+02 -2.9230E+00   1.6896E+02  0.000E+00  0.000E+00  0.000E+00  1.01231E+03  2.936E+00  4.257E+01  4.338E+00 -2.246E-01
   1   13    3     8     4    1.6896E+02 -4.0314E+00   1.7299E+02  0.000E+00  0.000E+00  0.000E+00  1.00608E+03  2.959E+00  4.290E+01  4.372E+00 -3.074E-01
   1   13    2     8     5    1.7299E+02 -2.9487E+00   1.7594E+02  0.000E+00  0.000E+00  0.000E+00  9.99856E+02  2.981E+00  4.322E+01  4.405E+00 -2.231E-01
   1   13    1     8     6    1.7594E+02 -2.2212E+00   1.7816E+02  0.000E+00  0.000E+00  0.000E+00  9.94872E+02  2.998E+00  4.346E+01  2.657E+00 -2.786E-01
   1    8    6     9     1    3.6593E+00  0.0000E+00   3.6593E+00  0.000E+00  0.000E+00  0.000E+00  1.07999E+03  1.240E+00  4.000E+00  0.000E+00  1.413E+00
   1    8    5     9     2    3.6593E+00  0.0000E+00   3.6593E+00  0.000E+00  0.000E+00  0.000E+00  1.07949E+03  1.240E+00  4.000E+00  0.000E+00  1.413E+00



 UBDSV3 SAVING "           GW ET" ON UNIT  61 AT TIME STEP  9, STRESS PERIOD   5
 UBDSV3 SAVING "    UZF RECHARGE" ON UNIT  61 AT TIME STEP  9, STRESS PERIOD   5
 UBDSV3 SAVING " SURFACE LEAKAGE" ON UNIT  61 AT TIME STEP  9, STRESS PERIOD   5
 UBDSV3 SAVING "       HORT+DUNN" ON UNIT  61 AT TIME STEP  9, STRESS PERIOD   5
 UBDSV3 SAVING "  STORAGE CHANGE" ON UNIT  61 AT TIME STEP  9, STRESS PERIOD   5


UNSATURATED ZONE PACKAGE VOLUMETRIC BUDGET FOR  TIME STEP     9 STRESS PERIOD    5
  ------------------------------------------------------------------------------



     CUMULATIVE VOLUMES      L**3       RATES FOR THIS TIME STEP      L**3/T
     ------------------                 ------------------------

           IN:                                      IN:
           ---                                      ---
        INFILTRATION =    40758098.4421          INFILTRATION =           8.0669

          OUT:                                     OUT:
          ----                                     ----
              UZF ET =    21144850.4663                UZF ET =          10.2860
        UZF RECHARGE =       73224.0000          UZF RECHARGE =       0.0000E+00

            IN - OUT =    19540023.9758              IN - OUT =          -2.2191

          STORAGE:                                 STORAGE:
          --------                                 --------
      STORAGE CHANGE =    19540023.6597        STORAGE CHANGE =          -2.2191

 PERCENT DISCREPANCY IS DIFFERENCE BETWEEN IN-OUT MINUS CHANGE IN STORAGE
 DIVIDED BY THE AVERAGE OF IN AND OUT TIMES 100

 PERCENT DISCREPANCY =           0.00     PERCENT DISCREPANCY =           0.00






 

            AG WELLS      PERIOD    5   STEP   9
 AG WELL      1   LAYER   1   ROW     6   COL     4   RATE     0.00000    
 AG WELL      2   LAYER   1   ROW     6   COL     5   RATE     0.00000    
 AG WELL      3   LAYER   1   ROW     7   COL     4   RATE     0.00000    
 AG WELL      4   LAYER   1   ROW     7   COL     5   RATE     0.00000    
 AG WELL      5   LAYER   1   ROW     8   COL     4   RATE     0.00000    
 AG WELL      6   LAYER   1   ROW     8   COL     5   RATE     0.00000    
 
 

   DIVERSION SEGMENTS     PERIOD    5   STEP   9
 SEGMENT      9   RATE     3.65929    
 
 

        SW IRRIGATION     PERIOD    5   STEP   9
 SEGMENT      9   ROW     6   COL     4   RATE    0.609895    
 SEGMENT      9   ROW     6   COL     5   RATE    0.609895    
 SEGMENT      9   ROW     7   COL     4   RATE    0.609895    
 SEGMENT      9   ROW     7   COL     5   RATE    0.609895    
 SEGMENT      9   ROW     8   COL     4   RATE    0.609895    
 SEGMENT      9   ROW     8   COL     5   RATE    0.609895    
 
 

        GW IRRIGATION     PERIOD    5   STEP   9
 AG WELL      1   ROW     6   COL     4   RATE     0.00000    
 AG WELL      2   ROW     6   COL     5   RATE     0.00000    
 AG WELL      3   ROW     7   COL     4   RATE     0.00000    
 AG WELL      4   ROW     7   COL     5   RATE     0.00000    
 AG WELL      5   ROW     8   COL     4   RATE     0.00000    
 AG WELL      6   ROW     8   COL     5   RATE     0.00000    
 
1
  VOLUMETRIC BUDGET FOR ENTIRE MODEL AT END OF TIME STEP    9, STRESS PERIOD   5
  ------------------------------------------------------------------------------

     CUMULATIVE VOLUMES      L**3       RATES FOR THIS TIME STEP      L**3/T
     ------------------                 ------------------------

           IN:                                      IN:
           ---                                      ---
               AG WELLS  =           0.0000                 AG WELLS  =           0.0000
      DIVERSION SEGMENTS =     2432134.7500        DIVERSION SEGMENTS =           3.6593
           GW IRRIGATION =           0.0000             GW IRRIGATION =           0.0000
           SW IRRIGATION =           0.0000             SW IRRIGATION =           0.0000
        SYSTEM LOSSES GW =           0.0000          SYSTEM LOSSES GW =           0.0000
        SYSTEM LOSSES SW =           0.0000          SYSTEM LOSSES SW =           0.0000

                TOTAL IN =     2432134.7500                  TOTAL IN =           3.6593

          OUT:                                     OUT:
          ----                                     ----
               AG WELLS  =           0.0000                 AG WELLS  =           0.0000
      DIVERSION SEGMENTS =           0.0000        DIVERSION SEGMENTS =           0.0000
           GW IRRIGATION =           0.0000             GW IRRIGATION =           0.0000
           SW IRRIGATION =     2432183.2500             SW IRRIGATION =           3.6594
        SYSTEM LOSSES GW =           0.0000          SYSTEM LOSSES GW =           0.0000
        SYSTEM LOSSES SW =           0.0000          SYSTEM LOSSES SW =           0.0000

               TOTAL OUT =     2432183.2500                 TOTAL OUT =           3.6594

                IN - OUT =         -48.5000                  IN - OUT =      -7.3195E-05

     PERCENT DISCREPANCY =          -0.00         PERCENT DISCREPANCY =          -0.00



1
  VOLUMETRIC BUDGET FOR ENTIRE MODEL AT END OF TIME STEP    9, STRESS PERIOD   5
  ------------------------------------------------------------------------------

     CUMULATIVE VOLUMES      L**3       RATES FOR THIS TIME STEP      L**3/T
     ------------------                 ------------------------

           IN:                                      IN:
           ---                                      ---
             STORAGE     =     6246454.5000               STORAGE     =           1.9053
       CONSTANT HEAD     =           0.0000         CONSTANT HEAD     =           0.0000
     HEAD DEP BOUNDS     =     2504370.0000       HEAD DEP BOUNDS     =           0.2858
      STREAM LEAKAGE     =   104874608.0000        STREAM LEAKAGE     =          11.3319
        UZF RECHARGE     =       73223.9531          UZF RECHARGE     =           0.0000
               GW ET     =           0.0000                 GW ET     =           0.0000
     SURFACE LEAKAGE     =           0.0000       SURFACE LEAKAGE     =           0.0000
           AG WELLS      =           0.0000             AG WELLS      =           0.0000

                TOTAL IN =   113698656.0000                  TOTAL IN =          13.5229

          OUT:                                     OUT:
          ----                                     ----
             STORAGE     =    19059586.0000               STORAGE     =           1.0744
       CONSTANT HEAD     =           0.0000         CONSTANT HEAD     =           0.0000
     HEAD DEP BOUNDS     =     2548174.5000       HEAD DEP BOUNDS     =           0.2929
      STREAM LEAKAGE     =    92077960.0000        STREAM LEAKAGE     =          12.1492
        UZF RECHARGE     =           0.0000          UZF RECHARGE     =           0.0000
               GW ET     =       16731.5078                 GW ET     =       6.5144E-03
     SURFACE LEAKAGE     =           0.0000       SURFACE LEAKAGE     =           0.0000
           AG WELLS      =           0.0000             AG WELLS      =           0.0000

               TOTAL OUT =   113702448.0000                 TOTAL OUT =          13.5230

                IN - OUT =       -3792.0000                  IN - OUT =      -8.8692E-05

     PERCENT DISCREPANCY =          -0.00         PERCENT DISCREPANCY =          -0.00






         TIME SUMMARY AT END OF TIME STEP    9 IN STRESS PERIOD    5
                    SECONDS     MINUTES      HOURS       DAYS        YEARS
                    -----------------------------------------------------------
   TIME STEP LENGTH  87667.      1461.1      24.352      1.0147     2.77799E-03
 STRESS PERIOD TIME 7.89000E+05  13150.      219.17      9.1319     2.50019E-02
         TOTAL TIME 8.76540E+06 1.46090E+05  2434.8      101.45     0.27776    
1
 
 SOLVING FOR HEAD 
                                                   Max.-Head-Change                         Max.-Flux-Residual
  Residual-Control   Outer-Iter.   Inner-Iter.     Column Row Layer    Maximum-Head-Change  Column Row Layer    Maximum-Flux-Residual          L2-NORM 
          0                 1           2             2   13     1      -0.5316354380E-02       2   13    1        -0.2990177766E+00      0.5724154944E+00
          0                 2           2             3    2     1      -0.2147116429E-03       3    2    1        -0.1150378933E-01      0.2658132412E-01
          0                 3           2             4   13     1      -0.2961435599E-03       4   13    1        -0.1696634945E-01      0.3240927428E-01
          0                 4           2             4   13     1      -0.2856644659E-03       2   13    1        -0.1663403635E-01      0.3018478915E-01
          0                 5           2             2   13     1      -0.1610515203E-03       2   13    1        -0.9572514735E-02      0.1719519923E-01
          0                 6           1             4   13     1       0.1518062765E-04       4   13    1         0.8995092021E-03      0.1091568511E-02

    ------------------------------------------------
       NWT REQUIRED            6 OUTER ITERATIONS 
       AND A TOTAL OF         11 INNER ITERATIONS.
    ------------------------------------------------

 OUTPUT CONTROL FOR STRESS PERIOD    5   TIME STEP   10
    PRINT BUDGET
    SAVE BUDGET
 UBDSV1 SAVING "         STORAGE" ON UNIT 102 AT TIME STEP 10, STRESS PERIOD   5
 UBDSV2 SAVING "   CONSTANT HEAD" ON UNIT 102 AT TIME STEP 10, STRESS PERIOD   5
 UBDSV1 SAVING "FLOW RIGHT FACE " ON UNIT 102 AT TIME STEP 10, STRESS PERIOD   5
 UBDSV1 SAVING "FLOW FRONT FACE " ON UNIT 102 AT TIME STEP 10, STRESS PERIOD   5

  HEAD DEP BOUNDS   PERIOD    5   STEP    10
 BOUNDARY      1   LAYER   1   ROW    13   COL     1   RATE   -0.292755    
 BOUNDARY      2   LAYER   1   ROW    14   COL     9   RATE    0.285765    



 STREAM LISTING     PERIOD      5   STEP       10

 LAYER ROW COL. STREAM  RCH.  FLOW INTO     FLOW TO   FLOW OUT OF   OVRLND.     DIRECT     STREAM       STREAM     STREAM     STREAM   STREAMBED  STREAMBED
                SEG.NO.  NO.  STRM. RCH.    AQUIFER    STRM. RCH.    RUNOFF     PRECIP       ET          HEAD       DEPTH      WIDTH   CONDCTNC.   GRADIENT

   1    1    1     1     1    2.1000E+01  2.2592E-01   2.0774E+01  0.000E+00  0.000E+00  0.000E+00  1.09416E+03  1.115E+00  1.220E+01  5.490E-02  1.372E+00
   1    2    2     1     2    2.0774E+01  3.4916E-01   2.0425E+01  0.000E+00  0.000E+00  0.000E+00  1.08917E+03  1.110E+00  1.214E+01  8.495E-02  1.370E+00
   1    3    3     1     3    2.0425E+01  2.9709E-01   2.0128E+01  0.000E+00  0.000E+00  0.000E+00  1.08352E+03  1.105E+00  1.206E+01  7.238E-02  1.368E+00
   1    3    4     1     4    2.0128E+01  2.7299E-01   1.9855E+01  0.000E+00  0.000E+00  0.000E+00  1.07851E+03  1.100E+00  1.200E+01  6.659E-02  1.367E+00
   1    4    5     2     1    1.7855E+01  3.1056E-01   1.7544E+01  0.000E+00  0.000E+00  0.000E+00  1.07292E+03  9.816E-01  1.200E+01  7.800E-02  1.327E+00
   1    5    6     2     2    1.7544E+01  2.3834E-01   1.7306E+01  0.000E+00  0.000E+00  0.000E+00  1.06748E+03  9.724E-01  1.200E+01  6.000E-02  1.324E+00
   1    6    6     2     3    1.7306E+01  2.3787E-01   1.7068E+01  0.000E+00  0.000E+00  0.000E+00  1.06276E+03  9.644E-01  1.200E+01  6.000E-02  1.321E+00
   1    7    6     2     4    1.7068E+01  2.3738E-01   1.6831E+01  0.000E+00  0.000E+00  0.000E+00  1.05803E+03  9.564E-01  1.200E+01  6.000E-02  1.319E+00
   1    8    6     2     5    1.6831E+01  2.3690E-01   1.6594E+01  0.000E+00  0.000E+00  0.000E+00  1.05331E+03  9.483E-01  1.200E+01  6.000E-02  1.316E+00
   1    3    5     3     1    2.0000E+00  2.8252E-01   1.7175E+00  0.000E+00  0.000E+00  0.000E+00  1.07555E+03  1.909E+00  9.636E+00  7.227E-02  1.955E+00
   1    3    6     3     2    1.7175E+00  2.4905E-01   1.4684E+00  0.000E+00  0.000E+00  0.000E+00  1.07264E+03  1.727E+00  8.909E+00  6.682E-02  1.864E+00
   1    3    7     3     3    1.4684E+00  1.9718E-01   1.2712E+00  0.000E+00  0.000E+00  0.000E+00  1.06987E+03  1.555E+00  8.218E+00  5.547E-02  1.777E+00
   1    4    8     3     4    1.2712E+00  2.2567E-01   1.0456E+00  0.000E+00  0.000E+00  0.000E+00  1.06682E+03  1.364E+00  7.455E+00  6.709E-02  1.682E+00
   1    5    8     3     5    1.0456E+00  1.5790E-01   8.8768E-01  0.000E+00  0.000E+00  0.000E+00  1.06362E+03  1.164E+00  6.655E+00  4.991E-02  1.582E+00
   1    6    8     3     6    8.8768E-01  5.5980E-02   8.3170E-01  0.000E+00  0.000E+00  0.000E+00  1.06158E+03  1.036E+00  6.145E+00  1.844E-02  1.518E+00
   1    5   10     4     1    1.0000E+01  9.0919E-02   9.9091E+00  0.000E+00  0.000E+00  0.000E+00  1.07836E+03  6.368E-01  1.000E+01  2.500E-02  1.212E+00
   1    5    9     4     2    9.9091E+00  1.8158E-01   9.7275E+00  0.000E+00  0.000E+00  0.000E+00  1.07154E+03  6.315E-01  1.000E+01  5.000E-02  1.211E+00
   1    6    8     4     3    9.7275E+00  1.2689E-01   9.6006E+00  0.000E+00  0.000E+00  0.000E+00  1.06381E+03  6.256E-01  1.000E+01  3.500E-02  1.209E+00
   1    6    8     5     1    1.0432E+01  2.2686E-01   1.0205E+01  0.000E+00  0.000E+00  0.000E+00  1.05868E+03  6.790E-01  1.542E+01  6.166E-02  1.226E+00
   1    7    7     5     2    1.0205E+01  2.7894E-01   9.9265E+00  0.000E+00  0.000E+00  0.000E+00  1.05417E+03  6.732E-01  1.519E+01  7.594E-02  1.224E+00
   1    8    7     5     3    9.9265E+00  1.9221E-01   9.7343E+00  0.000E+00  0.000E+00  0.000E+00  1.04992E+03  6.676E-01  1.497E+01  5.241E-02  1.223E+00
   1    8    6     5     4    9.7343E+00  1.3577E-01   9.5985E+00  0.000E+00  0.000E+00  0.000E+00  1.04691E+03  6.637E-01  1.482E+01  3.706E-02  1.221E+00
   1    9    6     6     1    2.2863E+01  2.4921E-01   2.2614E+01  0.000E+00  0.000E+00  0.000E+00  1.04388E+03  1.154E+00  1.200E+01  6.000E-02  1.385E+00
   1   10    7     6     2    2.2614E+01  2.4876E-01   2.2365E+01  0.000E+00  0.000E+00  0.000E+00  1.03933E+03  1.146E+00  1.200E+01  6.000E-02  1.382E+00
   1   11    7     6     3    2.2365E+01  2.4830E-01   2.2117E+01  0.000E+00  0.000E+00  0.000E+00  1.03477E+03  1.138E+00  1.200E+01  6.000E-02  1.379E+00
   1   12    7     6     4    2.2117E+01  2.4784E-01   2.1869E+01  0.000E+00  0.000E+00  0.000E+00  1.03022E+03  1.131E+00  1.200E+01  6.000E-02  1.377E+00
   1   13    7     6     5    2.1869E+01 -2.2583E-02   2.1892E+01  0.000E+00  0.000E+00  0.000E+00  1.02704E+03  1.127E+00  1.200E+01  2.400E-01 -3.137E-02
   1   14    9     7     1    1.5000E+02  1.3359E+00   1.4866E+02  0.000E+00  0.000E+00  0.000E+00  1.03987E+03  2.288E+00  5.529E+01  5.593E-01  7.962E-01
   1   13    8     7     2    1.4866E+02  1.8265E+00   1.4684E+02  0.000E+00  0.000E+00  0.000E+00  1.03478E+03  2.279E+00  5.526E+01  6.148E-01  9.903E-01
   1   13    7     7     3    1.4684E+02  1.4294E+00   1.4541E+02  0.000E+00  0.000E+00  0.000E+00  1.02969E+03  2.271E+00  5.522E+01  5.585E-01  8.532E-01
   1   13    6     8     1    1.6730E+02  8.4696E-01   1.6645E+02  0.000E+00  0.000E+00  0.000E+00  1.02481E+03  2.932E+00  4.251E+01  4.332E-01  6.517E-01
   1   13    5     8     2    1.6645E+02  9.7212E-02   1.6636E+02  0.000E+00  0.000E+00  0.000E+00  1.01855E+03  2.929E+00  4.247E+01  4.327E-01  7.488E-02
   1   13    4     8     3    1.6636E+02 -2.8942E+00   1.6925E+02  0.000E+00  0.000E+00  0.000E+00  1.01231E+03  2.938E+00  4.260E+01  4.341E+00 -2.222E-01
   1   13    3     8     4    1.6925E+02 -4.0039E+00   1.7325E+02  0.000E+00  0.000E+00  0.000E+00  1.00609E+03  2.960E+00  4.292E+01  4.374E+00 -3.051E-01
   1   13    2     8     5    1.7325E+02 -2.9170E+00   1.7617E+02  0.000E+00  0.000E+00  0.000E+00  9.99858E+02  2.983E+00  4.325E+01  4.407E+00 -2.206E-01
   1   13    1     8     6    1.7617E+02 -2.2071E+00   1.7838E+02  0.000E+00  0.000E+00  0.000E+00  9.94874E+02  2.999E+00  4.348E+01  2.659E+00 -2.767E-01
   1    8    6     9     1    3.3293E+00  0.0000E+00   3.3293E+00  0.000E+00  0.000E+00  0.000E+00  1.07992E+03  1.171E+00  4.000E+00  0.000E+00  1.390E+00
   1    8    5     9     2    3.3293E+00  0.0000E+00   3.3293E+00  0.000E+00  0.000E+00  0.000E+00  1.07942E+03  1.171E+00  4.000E+00  0.000E+00  1.390E+00



 UBDSV3 SAVING "           GW ET" ON UNIT  61 AT TIME STEP 10, STRESS PERIOD   5
 UBDSV3 SAVING "    UZF RECHARGE" ON UNIT  61 AT TIME STEP 10, STRESS PERIOD   5
 UBDSV3 SAVING " SURFACE LEAKAGE" ON UNIT  61 AT TIME STEP 10, STRESS PERIOD   5
 UBDSV3 SAVING "       HORT+DUNN" ON UNIT  61 AT TIME STEP 10, STRESS PERIOD   5
 UBDSV3 SAVING "  STORAGE CHANGE" ON UNIT  61 AT TIME STEP 10, STRESS PERIOD   5


UNSATURATED ZONE PACKAGE VOLUMETRIC BUDGET FOR  TIME STEP    10 STRESS PERIOD    5
  ------------------------------------------------------------------------------



     CUMULATIVE VOLUMES      L**3       RATES FOR THIS TIME STEP      L**3/T
     ------------------                 ------------------------

           IN:                                      IN:
           ---                                      ---
        INFILTRATION =    41436365.1990          INFILTRATION =           7.7369

          OUT:                                     OUT:
          ----                                     ----
              UZF ET =    22047530.8833                UZF ET =          10.2967
        UZF RECHARGE =       73224.0000          UZF RECHARGE =       0.0000E+00

            IN - OUT =    19315610.3157              IN - OUT =          -2.5599

          STORAGE:                                 STORAGE:
          --------                                 --------
      STORAGE CHANGE =    19315609.9923        STORAGE CHANGE =          -2.5599

 PERCENT DISCREPANCY IS DIFFERENCE BETWEEN IN-OUT MINUS CHANGE IN STORAGE
 DIVIDED BY THE AVERAGE OF IN AND OUT TIMES 100

 PERCENT DISCREPANCY =           0.00     PERCENT DISCREPANCY =           0.00






 

            AG WELLS      PERIOD    5   STEP  10
 AG WELL      1   LAYER   1   ROW     6   COL     4   RATE     0.00000    
 AG WELL      2   LAYER   1   ROW     6   COL     5   RATE     0.00000    
 AG WELL      3   LAYER   1   ROW     7   COL     4   RATE     0.00000    
 AG WELL      4   LAYER   1   ROW     7   COL     5   RATE     0.00000    
 AG WELL      5   LAYER   1   ROW     8   COL     4   RATE     0.00000    
 AG WELL      6   LAYER   1   ROW     8   COL     5   RATE     0.00000    
 
 

   DIVERSION SEGMENTS     PERIOD    5   STEP  10
 SEGMENT      9   RATE     3.32932    
 
 

        SW IRRIGATION     PERIOD    5   STEP  10
 SEGMENT      9   ROW     6   COL     4   RATE    0.554897    
 SEGMENT      9   ROW     6   COL     5   RATE    0.554897    
 SEGMENT      9   ROW     7   COL     4   RATE    0.554897    
 SEGMENT      9   ROW     7   COL     5   RATE    0.554897    
 SEGMENT      9   ROW     8   COL     4   RATE    0.554897    
 SEGMENT      9   ROW     8   COL     5   RATE    0.554897    
 
 

        GW IRRIGATION     PERIOD    5   STEP  10
 AG WELL      1   ROW     6   COL     4   RATE     0.00000    
 AG WELL      2   ROW     6   COL     5   RATE     0.00000    
 AG WELL      3   ROW     7   COL     4   RATE     0.00000    
 AG WELL      4   ROW     7   COL     5   RATE     0.00000    
 AG WELL      5   ROW     8   COL     4   RATE     0.00000    
 AG WELL      6   ROW     8   COL     5   RATE     0.00000    
 
1
  VOLUMETRIC BUDGET FOR ENTIRE MODEL AT END OF TIME STEP   10, STRESS PERIOD   5
  ------------------------------------------------------------------------------

     CUMULATIVE VOLUMES      L**3       RATES FOR THIS TIME STEP      L**3/T
     ------------------                 ------------------------

           IN:                                      IN:
           ---                                      ---
               AG WELLS  =           0.0000                 AG WELLS  =           0.0000
      DIVERSION SEGMENTS =     2724004.7500        DIVERSION SEGMENTS =           3.3293
           GW IRRIGATION =           0.0000             GW IRRIGATION =           0.0000
           SW IRRIGATION =           0.0000             SW IRRIGATION =           0.0000
        SYSTEM LOSSES GW =           0.0000          SYSTEM LOSSES GW =           0.0000
        SYSTEM LOSSES SW =           0.0000          SYSTEM LOSSES SW =           0.0000

                TOTAL IN =     2724004.7500                  TOTAL IN =           3.3293

          OUT:                                     OUT:
          ----                                     ----
               AG WELLS  =           0.0000                 AG WELLS  =           0.0000
      DIVERSION SEGMENTS =           0.0000        DIVERSION SEGMENTS =           0.0000
           GW IRRIGATION =           0.0000             GW IRRIGATION =           0.0000
           SW IRRIGATION =     2724059.2500             SW IRRIGATION =           3.3294
        SYSTEM LOSSES GW =           0.0000          SYSTEM LOSSES GW =           0.0000
        SYSTEM LOSSES SW =           0.0000          SYSTEM LOSSES SW =           0.0000

               TOTAL OUT =     2724059.2500                 TOTAL OUT =           3.3294

                IN - OUT =         -54.5000                  IN - OUT =      -6.6519E-05

     PERCENT DISCREPANCY =          -0.00         PERCENT DISCREPANCY =          -0.00



1
  VOLUMETRIC BUDGET FOR ENTIRE MODEL AT END OF TIME STEP   10, STRESS PERIOD   5
  ------------------------------------------------------------------------------

     CUMULATIVE VOLUMES      L**3       RATES FOR THIS TIME STEP      L**3/T
     ------------------                 ------------------------

           IN:                                      IN:
           ---                                      ---
             STORAGE     =     6401956.5000               STORAGE     =           1.7738
       CONSTANT HEAD     =           0.0000         CONSTANT HEAD     =           0.0000
     HEAD DEP BOUNDS     =     2529422.0000       HEAD DEP BOUNDS     =           0.2858
      STREAM LEAKAGE     =   105868552.0000        STREAM LEAKAGE     =          11.3378
        UZF RECHARGE     =       73223.9531          UZF RECHARGE     =           0.0000
               GW ET     =           0.0000                 GW ET     =           0.0000
     SURFACE LEAKAGE     =           0.0000       SURFACE LEAKAGE     =           0.0000
           AG WELLS      =           0.0000             AG WELLS      =           0.0000

                TOTAL IN =   114873152.0000                  TOTAL IN =          13.3973

          OUT:                                     OUT:
          ----                                     ----
             STORAGE     =    19152442.0000               STORAGE     =           1.0592
       CONSTANT HEAD     =           0.0000         CONSTANT HEAD     =           0.0000
     HEAD DEP BOUNDS     =     2573839.5000       HEAD DEP BOUNDS     =           0.2928
      STREAM LEAKAGE     =    93133880.0000        STREAM LEAKAGE     =          12.0447
        UZF RECHARGE     =           0.0000          UZF RECHARGE     =           0.0000
               GW ET     =       16798.6094                 GW ET     =       7.6541E-04
     SURFACE LEAKAGE     =           0.0000       SURFACE LEAKAGE     =           0.0000
           AG WELLS      =           0.0000             AG WELLS      =           0.0000

               TOTAL OUT =   114876960.0000                 TOTAL OUT =          13.3974

                IN - OUT =       -3808.0000                  IN - OUT =      -1.0872E-04

     PERCENT DISCREPANCY =          -0.00         PERCENT DISCREPANCY =          -0.00






         TIME SUMMARY AT END OF TIME STEP   10 IN STRESS PERIOD    5
                    SECONDS     MINUTES      HOURS       DAYS        YEARS
                    -----------------------------------------------------------
   TIME STEP LENGTH  87667.      1461.1      24.352      1.0147     2.77799E-03
 STRESS PERIOD TIME 8.76667E+05  14611.      243.52      10.147     2.77799E-02
         TOTAL TIME 8.85306E+06 1.47551E+05  2459.2      102.47     0.28054    
1
 
 SOLVING FOR HEAD 
                                                   Max.-Head-Change                         Max.-Flux-Residual
  Residual-Control   Outer-Iter.   Inner-Iter.     Column Row Layer    Maximum-Head-Change  Column Row Layer    Maximum-Flux-Residual          L2-NORM 
          0                 1           2             2   13     1      -0.4832200664E-02       2   13    1        -0.2717840609E+00      0.5275652135E+00
          0                 2           2             3    2     1      -0.2137625040E-03       3    2    1        -0.1145245311E-01      0.2629253988E-01
          0                 3           2             4   13     1      -0.3519459602E-03       4   13    1        -0.2016269508E-01      0.3803863783E-01
          0                 4           2             2   13     1      -0.2500075060E-03       2   13    1        -0.1486735445E-01      0.2625699211E-01
          0                 5           2             4   13     1      -0.5047994241E-03       4   13    1        -0.2891177489E-01      0.5203708327E-01
          0                 6           1             4   13     1       0.4860855161E-04       4   13    1         0.2866079616E-02      0.4099737616E-02

    ------------------------------------------------
       NWT REQUIRED            6 OUTER ITERATIONS 
       AND A TOTAL OF         11 INNER ITERATIONS.
    ------------------------------------------------

 NO OUTPUT CONTROL FOR STRESS PERIOD    5   TIME STEP   11
 
 SOLVING FOR HEAD 
                                                   Max.-Head-Change                         Max.-Flux-Residual
  Residual-Control   Outer-Iter.   Inner-Iter.     Column Row Layer    Maximum-Head-Change  Column Row Layer    Maximum-Flux-Residual          L2-NORM 
          0                 1           2             2   13     1      -0.4357870565E-02       2   13    1        -0.2450351170E+00      0.4868401883E+00
          0                 2           2             3    2     1      -0.2128185861E-03       3    2    1        -0.1140140981E-01      0.2614758698E-01
          0                 3           2             2   13     1      -0.1793763656E-03       2   13    1        -0.1008903164E-01      0.2054091501E-01
          0                 4           2             4   13     1      -0.3927883226E-03       4   13    1        -0.2250229891E-01      0.3997417199E-01
          0                 5           1             4   13     1       0.2975766123E-04       4   13    1         0.1755658457E-02      0.2875165995E-02

    ------------------------------------------------
       NWT REQUIRED            5 OUTER ITERATIONS 
       AND A TOTAL OF          9 INNER ITERATIONS.
    ------------------------------------------------

 NO OUTPUT CONTROL FOR STRESS PERIOD    5   TIME STEP   12
 
 SOLVING FOR HEAD 
                                                   Max.-Head-Change                         Max.-Flux-Residual
  Residual-Control   Outer-Iter.   Inner-Iter.     Column Row Layer    Maximum-Head-Change  Column Row Layer    Maximum-Flux-Residual          L2-NORM 
          0                 1           2             2   13     1      -0.3961206831E-02       2   13    1        -0.2226976003E+00      0.4539127342E+00
          0                 2           2             3    2     1      -0.2118882132E-03       3    2    1        -0.1135109625E-01      0.2773376346E-01
          0                 3           2             2   13     1      -0.3665202241E-03       4   13    1        -0.2095249208E-01      0.3974923586E-01
          0                 4           2             4   13     1      -0.2388414230E-03       4   13    1        -0.1368055055E-01      0.2448548708E-01
          0                 5           2             4   13     1      -0.4618728150E-03       4   13    1        -0.2645334540E-01      0.4724130157E-01
          0                 6           1             4   13     1       0.4446169114E-04       4   13    1         0.2621519168E-02      0.4363578930E-02

    ------------------------------------------------
       NWT REQUIRED            6 OUTER ITERATIONS 
       AND A TOTAL OF         11 INNER ITERATIONS.
    ------------------------------------------------

 NO OUTPUT CONTROL FOR STRESS PERIOD    5   TIME STEP   13
 
 SOLVING FOR HEAD 
                                                   Max.-Head-Change                         Max.-Flux-Residual
  Residual-Control   Outer-Iter.   Inner-Iter.     Column Row Layer    Maximum-Head-Change  Column Row Layer    Maximum-Flux-Residual          L2-NORM 
          0                 1           2             2   13     1      -0.3553541649E-02       2   13    1        -0.1997302713E+00      0.4216900086E+00
          0                 2           2             3    2     1      -0.2109795242E-03       4   13    1        -0.1174840063E-01      0.2873026203E-01
          0                 3           2             2   13     1      -0.1843115969E-03       2   13    1        -0.1036562481E-01      0.2122623921E-01
          0                 4           2             4   13     1      -0.3273180857E-03       4   13    1        -0.1875173294E-01      0.3331034111E-01
          0                 5           1             2   13     1      -0.3680403536E-04       4   13    1        -0.2102583540E-02      0.4065099658E-02

    ------------------------------------------------
       NWT REQUIRED            5 OUTER ITERATIONS 
       AND A TOTAL OF          9 INNER ITERATIONS.
    ------------------------------------------------

 NO OUTPUT CONTROL FOR STRESS PERIOD    5   TIME STEP   14
 
 SOLVING FOR HEAD 
                                                   Max.-Head-Change                         Max.-Flux-Residual
  Residual-Control   Outer-Iter.   Inner-Iter.     Column Row Layer    Maximum-Head-Change  Column Row Layer    Maximum-Flux-Residual          L2-NORM 
          0                 1           2             2   13     1      -0.3214993602E-02       2   13    1        -0.1806645692E+00      0.3957257695E+00
          0                 2           2             4   13     1      -0.2549829620E-03       4   13    1        -0.1470390396E-01      0.3127933539E-01
          0                 3           2             2   13     1      -0.3586753110E-03       4   13    1        -0.2047607955E-01      0.3910225538E-01
          0                 4           2             4   13     1      -0.2237490444E-03       4   13    1        -0.1281612656E-01      0.2293575188E-01
          0                 5           2             4   13     1      -0.5513342816E-03       4   13    1        -0.3157660318E-01      0.5634544646E-01
          0                 6           1             4   13     1       0.5306935780E-04       4   13    1         0.3129018748E-02      0.5200789064E-02

    ------------------------------------------------
       NWT REQUIRED            6 OUTER ITERATIONS 
       AND A TOTAL OF         11 INNER ITERATIONS.
    ------------------------------------------------

 NO OUTPUT CONTROL FOR STRESS PERIOD    5   TIME STEP   15
 
 SOLVING FOR HEAD 
                                                   Max.-Head-Change                         Max.-Flux-Residual
  Residual-Control   Outer-Iter.   Inner-Iter.     Column Row Layer    Maximum-Head-Change  Column Row Layer    Maximum-Flux-Residual          L2-NORM 
          0                 1           2             1   13     1      -0.2902793167E-02       2   13    1        -0.1605336436E+00      0.3694837996E+00
          0                 2           2             4   13     1      -0.2720871732E-03       4   13    1        -0.1568857183E-01      0.3220300409E-01
          0                 3           2             7   13     1      -0.1702213775E-03       7   13    1        -0.9458478157E-02      0.1788763726E-01
          0                 4           2             4   13     1      -0.3559208492E-03       4   13    1        -0.2039074222E-01      0.3618595252E-01
          0                 5           1             4   13     1       0.2240273714E-04       4   13    1         0.1322228238E-02      0.2144979641E-02

    ------------------------------------------------
       NWT REQUIRED            5 OUTER ITERATIONS 
       AND A TOTAL OF          9 INNER ITERATIONS.
    ------------------------------------------------

 NO OUTPUT CONTROL FOR STRESS PERIOD    5   TIME STEP   16
 
 SOLVING FOR HEAD 
                                                   Max.-Head-Change                         Max.-Flux-Residual
  Residual-Control   Outer-Iter.   Inner-Iter.     Column Row Layer    Maximum-Head-Change  Column Row Layer    Maximum-Flux-Residual          L2-NORM 
          0                 1           2             1   13     1      -0.2753228251E-02       1   13    1        -0.1498340248E+00      0.3496720134E+00
          0                 2           2             4   13     1      -0.3247634812E-03       4   13    1        -0.1870808824E-01      0.3564764466E-01
          0                 3           2             2   13     1      -0.3586453827E-03       4   13    1        -0.2047374050E-01      0.3921348519E-01
          0                 4           2             4   13     1      -0.2116391196E-03       4   13    1        -0.1212235095E-01      0.2170216797E-01
          0                 5           2             4   13     1      -0.4805324012E-03       4   13    1        -0.2752215648E-01      0.4912313678E-01
          0                 6           1             4   13     1       0.4627860216E-04       4   13    1         0.2728701934E-02      0.4534282252E-02

    ------------------------------------------------
       NWT REQUIRED            6 OUTER ITERATIONS 
       AND A TOTAL OF         11 INNER ITERATIONS.
    ------------------------------------------------

 NO OUTPUT CONTROL FOR STRESS PERIOD    5   TIME STEP   17
 
 SOLVING FOR HEAD 
                                                   Max.-Head-Change                         Max.-Flux-Residual
  Residual-Control   Outer-Iter.   Inner-Iter.     Column Row Layer    Maximum-Head-Change  Column Row Layer    Maximum-Flux-Residual          L2-NORM 
          0                 1           2             1   13     1      -0.2596605314E-02       1   13    1        -0.1413663226E+00      0.3294683757E+00
          0                 2           2             4   13     1      -0.3409016856E-03       4   13    1        -0.1963541884E-01      0.3676714547E-01
          0                 3           2             7   13     1      -0.1836830231E-03       7   13    1        -0.1020425159E-01      0.2015048812E-01
          0                 4           2             4   13     1      -0.2779468558E-03       4   13    1        -0.1592348823E-01      0.2816962158E-01
          0                 5           1             4   13     1      -0.6579747613E-04       4   13    1        -0.3767443641E-02      0.6805950434E-02

    ------------------------------------------------
       NWT REQUIRED            5 OUTER ITERATIONS 
       AND A TOTAL OF          9 INNER ITERATIONS.
    ------------------------------------------------

 NO OUTPUT CONTROL FOR STRESS PERIOD    5   TIME STEP   18
 
 SOLVING FOR HEAD 
                                                   Max.-Head-Change                         Max.-Flux-Residual
  Residual-Control   Outer-Iter.   Inner-Iter.     Column Row Layer    Maximum-Head-Change  Column Row Layer    Maximum-Flux-Residual          L2-NORM 
          0                 1           2             1   13     1      -0.2457055389E-02       1   13    1        -0.1338113288E+00      0.3141732018E+00
          0                 2           2             4   13     1      -0.3835125181E-03       4   13    1        -0.2207684670E-01      0.4001678022E-01
          0                 3           2             2   13     1      -0.3599378173E-03       4   13    1        -0.2055495868E-01      0.3943411891E-01
          0                 4           2             4   13     1      -0.1974121784E-03       4   13    1        -0.1130726085E-01      0.2004527173E-01
          0                 5           2             4   13     1      -0.4602742843E-03       4   13    1        -0.2636211340E-01      0.4695614582E-01
          0                 6           1             4   13     1       0.4431782084E-04       4   13    1         0.2613083528E-02      0.4501127304E-02

    ------------------------------------------------
       NWT REQUIRED            6 OUTER ITERATIONS 
       AND A TOTAL OF         11 INNER ITERATIONS.
    ------------------------------------------------

 NO OUTPUT CONTROL FOR STRESS PERIOD    5   TIME STEP   19
 
 SOLVING FOR HEAD 
                                                   Max.-Head-Change                         Max.-Flux-Residual
  Residual-Control   Outer-Iter.   Inner-Iter.     Column Row Layer    Maximum-Head-Change  Column Row Layer    Maximum-Flux-Residual          L2-NORM 
          0                 1           2             1   13     1      -0.2311838862E-02       1   13    1        -0.1259533558E+00      0.2988595761E+00
          0                 2           2             4   13     1      -0.3963122632E-03       4   13    1        -0.2281151547E-01      0.4104117157E-01
          0                 3           2             7   13     1      -0.1942920175E-03       7   13    1        -0.1079174486E-01      0.2204915159E-01
          0                 4           2             4   13     1      -0.2396388063E-03       4   13    1        -0.1372857092E-01      0.2428182417E-01
          0                 5           1             4   13     1      -0.1008137058E-03       4   13    1        -0.5773748606E-02      0.1035698430E-01
          0                 6           1             7   13     1      -0.9039647829E-06       5   13    1        -0.5036502034E-04      0.8508057325E-04

    ------------------------------------------------
       NWT REQUIRED            6 OUTER ITERATIONS 
       AND A TOTAL OF         10 INNER ITERATIONS.
    ------------------------------------------------

 NO OUTPUT CONTROL FOR STRESS PERIOD    5   TIME STEP   20
 
 SOLVING FOR HEAD 
                                                   Max.-Head-Change                         Max.-Flux-Residual
  Residual-Control   Outer-Iter.   Inner-Iter.     Column Row Layer    Maximum-Head-Change  Column Row Layer    Maximum-Flux-Residual          L2-NORM 
          0                 1           2             1   13     1      -0.2182323234E-02       1   13    1        -0.1189353801E+00      0.2873951661E+00
          0                 2           2             4   13     1      -0.4321943062E-03       4   13    1        -0.2486636515E-01      0.4403576405E-01
          0                 3           2             2   13     1      -0.3583885950E-03       4   13    1        -0.2048365606E-01      0.3935495227E-01
          0                 4           2             4   13     1      -0.1902188042E-03       4   13    1        -0.1089513465E-01      0.1931685095E-01
          0                 5           2             4   13     1      -0.3478424198E-03       4   13    1        -0.1992311633E-01      0.3550562341E-01
          0                 6           1             4   13     1       0.3345888333E-04       4   13    1         0.1972881571E-02      0.3402480656E-02

    ------------------------------------------------
       NWT REQUIRED            6 OUTER ITERATIONS 
       AND A TOTAL OF         11 INNER ITERATIONS.
    ------------------------------------------------

 NO OUTPUT CONTROL FOR STRESS PERIOD    5   TIME STEP   21
 
 SOLVING FOR HEAD 
                                                   Max.-Head-Change                         Max.-Flux-Residual
  Residual-Control   Outer-Iter.   Inner-Iter.     Column Row Layer    Maximum-Head-Change  Column Row Layer    Maximum-Flux-Residual          L2-NORM 
          0                 1           2             1    1     1       0.2137120693E-02       1   13    1        -0.1117569378E+00      0.2763815005E+00
          0                 2           2             4   13     1      -0.4482336937E-03       4   13    1        -0.2578531480E-01      0.4543972010E-01
          0                 3           2             2   13     1      -0.2561767315E-03       4   13    1        -0.1449321555E-01      0.2895196424E-01
          0                 4           2             4   13     1      -0.2001532511E-03       4   13    1        -0.1146551961E-01      0.2029225955E-01
          0                 5           2             4   13     1      -0.1558481764E-03       4   13    1        -0.8926563696E-02      0.1594856747E-01
          0                 6           1             4   13     1       0.3906566871E-05       4   13    1         0.2312025117E-03      0.3786539507E-03

    ------------------------------------------------
       NWT REQUIRED            6 OUTER ITERATIONS 
       AND A TOTAL OF         11 INNER ITERATIONS.
    ------------------------------------------------

 NO OUTPUT CONTROL FOR STRESS PERIOD    5   TIME STEP   22
 
 SOLVING FOR HEAD 
                                                   Max.-Head-Change                         Max.-Flux-Residual
  Residual-Control   Outer-Iter.   Inner-Iter.     Column Row Layer    Maximum-Head-Change  Column Row Layer    Maximum-Flux-Residual          L2-NORM 
          0                 1           2             1    1     1       0.2134723339E-02       1    1    1         0.1108264048E+00      0.2677856514E+00
          0                 2           2             4   13     1      -0.4743833162E-03       4   13    1        -0.2728211908E-01      0.4777618921E-01
          0                 3           2             2   13     1      -0.3512681404E-03       4   13    1        -0.2007193561E-01      0.3869542910E-01
          0                 4           2             4   13     1      -0.1785590557E-03       4   13    1        -0.1022741288E-01      0.1810852860E-01
          0                 5           2             4   13     1      -0.3454559574E-03       4   13    1        -0.1978653866E-01      0.3526538266E-01
          0                 6           1             4   13     1       0.3326550622E-04       4   13    1         0.1961496816E-02      0.3381823261E-02

    ------------------------------------------------
       NWT REQUIRED            6 OUTER ITERATIONS 
       AND A TOTAL OF         11 INNER ITERATIONS.
    ------------------------------------------------

 NO OUTPUT CONTROL FOR STRESS PERIOD    5   TIME STEP   23
 
 SOLVING FOR HEAD 
                                                   Max.-Head-Change                         Max.-Flux-Residual
  Residual-Control   Outer-Iter.   Inner-Iter.     Column Row Layer    Maximum-Head-Change  Column Row Layer    Maximum-Flux-Residual          L2-NORM 
          0                 1           2             1    1     1       0.2132311888E-02       1    1    1         0.1107009669E+00      0.2599671215E+00
          0                 2           2             4   13     1      -0.4883294370E-03       4   13    1        -0.2808044806E-01      0.4907617095E-01
          0                 3           2             2   13     1      -0.2641473901E-03       4   13    1        -0.1498507996E-01      0.2984724561E-01
          0                 4           2             4   13     1      -0.1887308512E-03       4   13    1        -0.1081098930E-01      0.1913695889E-01
          0                 5           2             4   13     1      -0.1537516404E-03       4   13    1        -0.8806495406E-02      0.1573269771E-01
          0                 6           1             2   13     1      -0.6141149774E-05       2   13    1        -0.3454130137E-03      0.6512169956E-03

    ------------------------------------------------
       NWT REQUIRED            6 OUTER ITERATIONS 
       AND A TOTAL OF         11 INNER ITERATIONS.
    ------------------------------------------------

 NO OUTPUT CONTROL FOR STRESS PERIOD    5   TIME STEP   24
 
 SOLVING FOR HEAD 
                                                   Max.-Head-Change                         Max.-Flux-Residual
  Residual-Control   Outer-Iter.   Inner-Iter.     Column Row Layer    Maximum-Head-Change  Column Row Layer    Maximum-Flux-Residual          L2-NORM 
          0                 1           2             1    1     1       0.2129930148E-02       1    1    1         0.1105770738E+00      0.2539118150E+00
          0                 2           2             4   13     1      -0.5103830094E-03       4   13    1        -0.2934213967E-01      0.5113852919E-01
          0                 3           2             2   13     1      -0.3551449525E-03       4   13    1        -0.2033418730E-01      0.3916524676E-01
          0                 4           2             4   13     1      -0.1695765297E-03       4   13    1        -0.9715145694E-02      0.1719446763E-01
          0                 5           2             4   13     1      -0.2409990675E-03       4   13    1        -0.1380476203E-01      0.2462753211E-01
          0                 6           1             4   13     1       0.2319826098E-04       4   13    1         0.1366388128E-02      0.2366916069E-02

    ------------------------------------------------
       NWT REQUIRED            6 OUTER ITERATIONS 
       AND A TOTAL OF         11 INNER ITERATIONS.
    ------------------------------------------------

 NO OUTPUT CONTROL FOR STRESS PERIOD    5   TIME STEP   25
 
 SOLVING FOR HEAD 
                                                   Max.-Head-Change                         Max.-Flux-Residual
  Residual-Control   Outer-Iter.   Inner-Iter.     Column Row Layer    Maximum-Head-Change  Column Row Layer    Maximum-Flux-Residual          L2-NORM 
          0                 1           2             1    1     1       0.2127556172E-02       1    1    1         0.1104535834E+00      0.2486742058E+00
          0                 2           2             4   13     1      -0.5122487687E-03       4   13    1        -0.3027036332E-01      0.5270410583E-01
          0                 3           2             4   13     1      -0.3368907525E-03       4   13    1        -0.1984299219E-01      0.3720384487E-01
          0                 4           2             4   13     1      -0.1728047419E-03       4   13    1        -0.1018303587E-01      0.1741903995E-01
          0                 5           2             4   13     1      -0.1892454662E-03       4   13    1        -0.1114687966E-01      0.1956938197E-01
          0                 6           1             2   13     1       0.4531189814E-05       2   13    1         0.2618317476E-03      0.4021464230E-03

    ------------------------------------------------
       NWT REQUIRED            6 OUTER ITERATIONS 
       AND A TOTAL OF         11 INNER ITERATIONS.
    ------------------------------------------------

 NO OUTPUT CONTROL FOR STRESS PERIOD    5   TIME STEP   26
 
 SOLVING FOR HEAD 
                                                   Max.-Head-Change                         Max.-Flux-Residual
  Residual-Control   Outer-Iter.   Inner-Iter.     Column Row Layer    Maximum-Head-Change  Column Row Layer    Maximum-Flux-Residual          L2-NORM 
          0                 1           2             1    1     1       0.2125189936E-02       1    1    1         0.1103304955E+00      0.2444742989E+00
          0                 2           2             4   13     1      -0.5282842842E-03       4   13    1        -0.3121327434E-01      0.5430371770E-01
          0                 3           2             4   13     1      -0.3583126580E-03       4   13    1        -0.2110453958E-01      0.3941037725E-01
          0                 4           2             4   13     1      -0.1679639012E-03       4   13    1        -0.9898283806E-02      0.1686669030E-01
          0                 5           2             4   13     1      -0.1820008273E-03       4   13    1        -0.1072007218E-01      0.1882609095E-01
          0                 6           1             2   13     1       0.5093356726E-05       2   13    1         0.2943779909E-03      0.4483780878E-03

    ------------------------------------------------
       NWT REQUIRED            6 OUTER ITERATIONS 
       AND A TOTAL OF         11 INNER ITERATIONS.
    ------------------------------------------------

 NO OUTPUT CONTROL FOR STRESS PERIOD    5   TIME STEP   27
 
 SOLVING FOR HEAD 
                                                   Max.-Head-Change                         Max.-Flux-Residual
  Residual-Control   Outer-Iter.   Inner-Iter.     Column Row Layer    Maximum-Head-Change  Column Row Layer    Maximum-Flux-Residual          L2-NORM 
          0                 1           2             1    1     1       0.2122831410E-02       1    1    1         0.1102078090E+00      0.2410721656E+00
          0                 2           2             4   13     1      -0.5426392430E-03       4   13    1        -0.3205654671E-01      0.5579021329E-01
          0                 3           2             4   13     1      -0.3648351878E-03       4   13    1        -0.2148944506E-01      0.4004059391E-01
          0                 4           2             4   13     1      -0.1597959202E-03       4   13    1        -0.9417187865E-02      0.1601773499E-01
          0                 5           2             4   13     1      -0.1854190909E-03       4   13    1        -0.1092113853E-01      0.1920248638E-01
          0                 6           1             4   13     1      -0.5857714659E-05       4   13    1        -0.3480405931E-03      0.3823117720E-03

    ------------------------------------------------
       NWT REQUIRED            6 OUTER ITERATIONS 
       AND A TOTAL OF         11 INNER ITERATIONS.
    ------------------------------------------------

 NO OUTPUT CONTROL FOR STRESS PERIOD    5   TIME STEP   28
 
 SOLVING FOR HEAD 
                                                   Max.-Head-Change                         Max.-Flux-Residual
  Residual-Control   Outer-Iter.   Inner-Iter.     Column Row Layer    Maximum-Head-Change  Column Row Layer    Maximum-Flux-Residual          L2-NORM 
          0                 1           2             4   13     1       0.4541091075E-02       4   13    1         0.2615626426E+00      0.5286575236E+00
          0                 2           2             7   13     1      -0.1350074083E-02       7   13    1        -0.7478744720E-01      0.1227505497E+00
          0                 3           2             4   13     1      -0.3502221964E-03       4   13    1        -0.2065458641E-01      0.3698290577E-01
          0                 4           2             4   13     1      -0.1595102512E-03       4   13    1        -0.9410215366E-02      0.1643486030E-01
          0                 5           2             4   13     1      -0.1845890591E-03       4   13    1        -0.1088766418E-01      0.1902266266E-01
          0                 6           1             2   13     1      -0.1348347854E-04       4   13    1        -0.7820449582E-03      0.1393756466E-02

    ------------------------------------------------
       NWT REQUIRED            6 OUTER ITERATIONS 
       AND A TOTAL OF         11 INNER ITERATIONS.
    ------------------------------------------------

 NO OUTPUT CONTROL FOR STRESS PERIOD    5   TIME STEP   29
 
 SOLVING FOR HEAD 
                                                   Max.-Head-Change                         Max.-Flux-Residual
  Residual-Control   Outer-Iter.   Inner-Iter.     Column Row Layer    Maximum-Head-Change  Column Row Layer    Maximum-Flux-Residual          L2-NORM 
          0                 1           2             4   13     1       0.2051196139E-01       4   13    1         0.1184601119E+01      0.2133051023E+01
          0                 2           2             4   13     1      -0.2534815052E-02       4   13    1        -0.1504651870E+00      0.2626992913E+00
          0                 3           2             2   13     1      -0.2663687072E-03       2   13    1        -0.1550134740E-01      0.2819324367E-01
          0                 4           2             4   13     1      -0.1708688044E-03       4   13    1        -0.1013436906E-01      0.1764907002E-01
          0                 5           2             4   13     1      -0.1882575861E-03       4   13    1        -0.1116427197E-01      0.1950690441E-01
          0                 6           1             2   13     1      -0.1602006226E-04       4   13    1        -0.9405075270E-03      0.1677697696E-02

    ------------------------------------------------
       NWT REQUIRED            6 OUTER ITERATIONS 
       AND A TOTAL OF         11 INNER ITERATIONS.
    ------------------------------------------------

 NO OUTPUT CONTROL FOR STRESS PERIOD    5   TIME STEP   30



 STREAM LISTING     PERIOD      5   STEP       30

 LAYER ROW COL. STREAM  RCH.  FLOW INTO     FLOW TO   FLOW OUT OF   OVRLND.     DIRECT     STREAM       STREAM     STREAM     STREAM   STREAMBED  STREAMBED
                SEG.NO.  NO.  STRM. RCH.    AQUIFER    STRM. RCH.    RUNOFF     PRECIP       ET          HEAD       DEPTH      WIDTH   CONDCTNC.   GRADIENT

   1    1    1     1     1    7.4250E+01  4.1989E-01   7.3830E+01  0.000E+00  0.000E+00  0.000E+00  1.09474E+03  1.690E+00  1.990E+01  8.954E-02  1.563E+00
   1    2    2     1     2    7.3830E+01  6.5045E-01   7.3180E+01  0.000E+00  0.000E+00  0.000E+00  1.08974E+03  1.684E+00  1.984E+01  1.389E-01  1.561E+00
   1    3    3     1     3    7.3180E+01  5.5490E-01   7.2625E+01  0.000E+00  0.000E+00  0.000E+00  1.08410E+03  1.677E+00  1.977E+01  1.186E-01  1.559E+00
   1    3    4     1     4    7.2625E+01  5.1113E-01   7.2114E+01  0.000E+00  0.000E+00  0.000E+00  1.07908E+03  1.671E+00  1.972E+01  1.094E-01  1.557E+00
   1    4    5     2     1    7.0114E+01  4.0857E-01   6.9705E+01  0.000E+00  0.000E+00  0.000E+00  1.07417E+03  2.238E+00  1.200E+01  7.800E-02  1.746E+00
   1    5    6     2     2    6.9705E+01  3.1387E-01   6.9391E+01  0.000E+00  0.000E+00  0.000E+00  1.06874E+03  2.231E+00  1.200E+01  6.000E-02  1.744E+00
   1    6    6     2     3    6.9391E+01  3.1350E-01   6.9078E+01  0.000E+00  0.000E+00  0.000E+00  1.06402E+03  2.225E+00  1.200E+01  6.000E-02  1.742E+00
   1    7    6     2     4    6.9078E+01  3.1314E-01   6.8765E+01  0.000E+00  0.000E+00  0.000E+00  1.05929E+03  2.219E+00  1.200E+01  6.000E-02  1.740E+00
   1    8    6     2     5    6.8765E+01  3.1278E-01   6.8452E+01  0.000E+00  0.000E+00  0.000E+00  1.05457E+03  2.213E+00  1.200E+01  6.000E-02  1.738E+00
   1    3    5     3     1    2.0000E+00  2.8252E-01   1.7175E+00  0.000E+00  0.000E+00  0.000E+00  1.07555E+03  1.909E+00  9.636E+00  7.227E-02  1.955E+00
   1    3    6     3     2    1.7175E+00  2.4905E-01   1.4684E+00  0.000E+00  0.000E+00  0.000E+00  1.07264E+03  1.727E+00  8.909E+00  6.682E-02  1.864E+00
   1    3    7     3     3    1.4684E+00  1.9718E-01   1.2712E+00  0.000E+00  0.000E+00  0.000E+00  1.06987E+03  1.555E+00  8.218E+00  5.547E-02  1.777E+00
   1    4    8     3     4    1.2712E+00  2.2567E-01   1.0456E+00  0.000E+00  0.000E+00  0.000E+00  1.06682E+03  1.364E+00  7.455E+00  6.709E-02  1.682E+00
   1    5    8     3     5    1.0456E+00  1.5790E-01   8.8768E-01  0.000E+00  0.000E+00  0.000E+00  1.06362E+03  1.164E+00  6.655E+00  4.991E-02  1.582E+00
   1    6    8     3     6    8.8768E-01  5.5980E-02   8.3170E-01  0.000E+00  0.000E+00  0.000E+00  1.06158E+03  1.036E+00  6.145E+00  1.844E-02  1.518E+00
   1    5   10     4     1    1.0000E+01  9.0919E-02   9.9091E+00  0.000E+00  0.000E+00  0.000E+00  1.07836E+03  6.368E-01  1.000E+01  2.500E-02  1.212E+00
   1    5    9     4     2    9.9091E+00  1.8158E-01   9.7275E+00  0.000E+00  0.000E+00  0.000E+00  1.07154E+03  6.315E-01  1.000E+01  5.000E-02  1.211E+00
   1    6    8     4     3    9.7275E+00  1.2689E-01   9.6006E+00  0.000E+00  0.000E+00  0.000E+00  1.06381E+03  6.256E-01  1.000E+01  3.500E-02  1.209E+00
   1    6    8     5     1    1.0432E+01  2.2686E-01   1.0205E+01  0.000E+00  0.000E+00  0.000E+00  1.05868E+03  6.790E-01  1.542E+01  6.166E-02  1.226E+00
   1    7    7     5     2    1.0205E+01  2.7894E-01   9.9265E+00  0.000E+00  0.000E+00  0.000E+00  1.05417E+03  6.732E-01  1.519E+01  7.594E-02  1.224E+00
   1    8    7     5     3    9.9265E+00  1.9221E-01   9.7343E+00  0.000E+00  0.000E+00  0.000E+00  1.04992E+03  6.676E-01  1.497E+01  5.241E-02  1.223E+00
   1    8    6     5     4    9.7343E+00  1.3577E-01   9.5985E+00  0.000E+00  0.000E+00  0.000E+00  1.04691E+03  6.637E-01  1.482E+01  3.706E-02  1.221E+00
   1    9    6     6     1    7.4466E+01  3.2084E-01   7.4145E+01  0.000E+00  0.000E+00  0.000E+00  1.04507E+03  2.347E+00  1.200E+01  6.000E-02  1.782E+00
   1   10    7     6     2    7.4145E+01  3.2048E-01   7.3824E+01  0.000E+00  0.000E+00  0.000E+00  1.04052E+03  2.341E+00  1.200E+01  6.000E-02  1.780E+00
   1   11    7     6     3    7.3824E+01  3.2011E-01   7.3504E+01  0.000E+00  0.000E+00  0.000E+00  1.03597E+03  2.335E+00  1.200E+01  6.000E-02  1.778E+00
   1   12    7     6     4    7.3504E+01  3.1975E-01   7.3185E+01  0.000E+00  0.000E+00  0.000E+00  1.03142E+03  2.329E+00  1.200E+01  6.000E-02  1.776E+00
   1   13    7     6     5    7.3185E+01  2.6526E-02   7.3158E+01  0.000E+00  0.000E+00  0.000E+00  1.02823E+03  2.326E+00  1.200E+01  2.400E-02  3.684E-01
   1   14    9     7     1    1.5000E+02  1.3361E+00   1.4866E+02  0.000E+00  0.000E+00  0.000E+00  1.03987E+03  2.288E+00  5.529E+01  5.593E-01  7.963E-01
   1   13    8     7     2    1.4866E+02  1.8248E+00   1.4684E+02  0.000E+00  0.000E+00  0.000E+00  1.03478E+03  2.279E+00  5.526E+01  6.148E-01  9.894E-01
   1   13    7     7     3    1.4684E+02  1.4298E+00   1.4541E+02  0.000E+00  0.000E+00  0.000E+00  1.02969E+03  2.271E+00  5.522E+01  5.585E-01  8.534E-01
   1   13    6     8     1    2.1857E+02  1.0897E+00   2.1748E+02  0.000E+00  0.000E+00  0.000E+00  1.02512E+03  3.241E+00  4.699E+01  4.789E-01  7.585E-01
   1   13    5     8     2    2.1748E+02  2.6327E-01   2.1721E+02  0.000E+00  0.000E+00  0.000E+00  1.01886E+03  3.237E+00  4.694E+01  4.783E-01  1.835E-01
   1   13    4     8     3    2.1721E+02 -1.6307E+00   2.1884E+02  0.000E+00  0.000E+00  0.000E+00  1.01262E+03  3.241E+00  4.699E+01  4.789E+00 -1.135E-01
   1   13    3     8     4    2.1884E+02 -2.8543E+00   2.2170E+02  0.000E+00  0.000E+00  0.000E+00  1.00638E+03  3.253E+00  4.717E+01  4.807E+00 -1.979E-01
   1   13    2     8     5    2.2170E+02 -1.6433E+00   2.2334E+02  0.000E+00  0.000E+00  0.000E+00  1.00014E+03  3.266E+00  4.735E+01  4.826E+00 -1.135E-01
   1   13    1     8     6    2.2334E+02 -1.4834E+00   2.2483E+02  0.000E+00  0.000E+00  0.000E+00  9.95149E+02  3.274E+00  4.748E+01  2.903E+00 -1.703E-01
   1    8    6     9     1    3.5849E+00  0.0000E+00   3.5849E+00  0.000E+00  0.000E+00  0.000E+00  1.07997E+03  1.225E+00  4.000E+00  0.000E+00  1.408E+00
   1    8    5     9     2    3.5849E+00  0.0000E+00   3.5849E+00  0.000E+00  0.000E+00  0.000E+00  1.07947E+03  1.225E+00  4.000E+00  0.000E+00  1.408E+00





UNSATURATED ZONE PACKAGE VOLUMETRIC BUDGET FOR  TIME STEP    30 STRESS PERIOD    5
  ------------------------------------------------------------------------------



     CUMULATIVE VOLUMES      L**3       RATES FOR THIS TIME STEP      L**3/T
     ------------------                 ------------------------

           IN:                                      IN:
           ---                                      ---
        INFILTRATION =    55436170.8708          INFILTRATION =           7.9925

          OUT:                                     OUT:
          ----                                     ----
              UZF ET =    35825481.6411                UZF ET =           7.8575
        UZF RECHARGE =       73224.0000          UZF RECHARGE =       0.0000E+00

            IN - OUT =    19537465.2297              IN - OUT =           0.1350

          STORAGE:                                 STORAGE:
          --------                                 --------
      STORAGE CHANGE =    19537464.7977        STORAGE CHANGE =           0.1350

 PERCENT DISCREPANCY IS DIFFERENCE BETWEEN IN-OUT MINUS CHANGE IN STORAGE
 DIVIDED BY THE AVERAGE OF IN AND OUT TIMES 100

 PERCENT DISCREPANCY =           0.00     PERCENT DISCREPANCY =           0.00






1
  VOLUMETRIC BUDGET FOR ENTIRE MODEL AT END OF TIME STEP   30, STRESS PERIOD   5
  ------------------------------------------------------------------------------

     CUMULATIVE VOLUMES      L**3       RATES FOR THIS TIME STEP      L**3/T
     ------------------                 ------------------------

           IN:                                      IN:
           ---                                      ---
               AG WELLS  =           0.0000                 AG WELLS  =           0.0000
      DIVERSION SEGMENTS =     8995869.0000        DIVERSION SEGMENTS =           3.5849
           GW IRRIGATION =           0.0000             GW IRRIGATION =           0.0000
           SW IRRIGATION =           0.0000             SW IRRIGATION =           0.0000
        SYSTEM LOSSES GW =           0.0000          SYSTEM LOSSES GW =           0.0000
        SYSTEM LOSSES SW =           0.0000          SYSTEM LOSSES SW =           0.0000

                TOTAL IN =     8995869.0000                  TOTAL IN =           3.5849

          OUT:                                     OUT:
          ----                                     ----
               AG WELLS  =           0.0000                 AG WELLS  =           0.0000
      DIVERSION SEGMENTS =           0.0000        DIVERSION SEGMENTS =           0.0000
           GW IRRIGATION =           0.0000             GW IRRIGATION =           0.0000
           SW IRRIGATION =     8996050.0000             SW IRRIGATION =           3.5850
        SYSTEM LOSSES GW =           0.0000          SYSTEM LOSSES GW =           0.0000
        SYSTEM LOSSES SW =           0.0000          SYSTEM LOSSES SW =           0.0000

               TOTAL OUT =     8996050.0000                 TOTAL OUT =           3.5850

                IN - OUT =        -181.0000                  IN - OUT =      -7.1526E-05

     PERCENT DISCREPANCY =          -0.00         PERCENT DISCREPANCY =          -0.00



1
  VOLUMETRIC BUDGET FOR ENTIRE MODEL AT END OF TIME STEP   30, STRESS PERIOD   5
  ------------------------------------------------------------------------------

     CUMULATIVE VOLUMES      L**3       RATES FOR THIS TIME STEP      L**3/T
     ------------------                 ------------------------

           IN:                                      IN:
           ---                                      ---
             STORAGE     =     8376221.5000               STORAGE     =           0.3970
       CONSTANT HEAD     =           0.0000         CONSTANT HEAD     =           0.0000
     HEAD DEP BOUNDS     =     3030473.2500       HEAD DEP BOUNDS     =           0.2858
      STREAM LEAKAGE     =   125987144.0000        STREAM LEAKAGE     =          13.4511
        UZF RECHARGE     =       73223.9531          UZF RECHARGE     =           0.0000
               GW ET     =           0.0000                 GW ET     =           0.0000
     SURFACE LEAKAGE     =           0.0000       SURFACE LEAKAGE     =           0.0000
           AG WELLS      =           0.0000             AG WELLS      =           0.0000

                TOTAL IN =   137467056.0000                  TOTAL IN =          14.1339

          OUT:                                     OUT:
          ----                                     ----
             STORAGE     =    21366470.0000               STORAGE     =           6.2309
       CONSTANT HEAD     =           0.0000         CONSTANT HEAD     =           0.0000
     HEAD DEP BOUNDS     =     3084946.0000       HEAD DEP BOUNDS     =           0.2911
      STREAM LEAKAGE     =   113002840.0000        STREAM LEAKAGE     =           7.6116
        UZF RECHARGE     =           0.0000          UZF RECHARGE     =           0.0000
               GW ET     =       16798.6094                 GW ET     =           0.0000
     SURFACE LEAKAGE     =           0.0000       SURFACE LEAKAGE     =           0.0000
           AG WELLS      =           0.0000             AG WELLS      =           0.0000

               TOTAL OUT =   137471056.0000                 TOTAL OUT =          14.1337

                IN - OUT =       -4000.0000                  IN - OUT =       2.6703E-04

     PERCENT DISCREPANCY =          -0.00         PERCENT DISCREPANCY =           0.00






         TIME SUMMARY AT END OF TIME STEP   30 IN STRESS PERIOD    5
                    SECONDS     MINUTES      HOURS       DAYS        YEARS
                    -----------------------------------------------------------
   TIME STEP LENGTH  87667.      1461.1      24.352      1.0147     2.77799E-03
 STRESS PERIOD TIME 2.63000E+06  43833.      730.56      30.440     8.33397E-02
         TOTAL TIME 1.06064E+07 1.76773E+05  2946.2      122.76     0.33610    
1
1
                            STRESS PERIOD NO.    6, LENGTH =   2630000.    
                            -----------------------------------------------

                              NUMBER OF TIME STEPS =    30

                               MULTIPLIER FOR DELT =     1.000

                            INITIAL TIME STEP SIZE =   87666.66    

 REUSING NON-PARAMETER GHB CELLS FROM LAST STRESS PERIOD

      2 GHB CELLS

 REUSING STREAM SEGMENT DATA FROM LAST STRESS PERIOD



            AREAL INFILTRATION RATE
 READING ON UNIT   19 WITH FORMAT: (10F4.0)            

            1           2           3           4           5           6           7           8           9          10
 ........................................................................................................................
   1   1.2000E-09   0.000       0.000       0.000       0.000       0.000       0.000       0.000       0.000       0.000    
   2   2.1000E-09  2.0000E-09  8.0000E-10  8.5000E-09   0.000       0.000       0.000       0.000       0.000       0.000    
   3   5.0000E-10  1.1000E-09  8.8000E-09  5.5000E-09   0.000       0.000       0.000       0.000       0.000       0.000    
   4   8.5000E-09  1.1000E-09  1.1000E-09  1.1000E-09  2.0000E-09   0.000       0.000       0.000       0.000       0.000    
   5   8.5000E-09  1.1000E-09  1.1000E-09  1.1000E-09  1.1000E-09   0.000       0.000       0.000       0.000       0.000    
   6   8.5000E-09  5.2000E-09  2.1000E-09  1.1000E-09  1.5000E-09   0.000       0.000       0.000       0.000       0.000    
   7   8.5000E-09  5.2000E-09  2.1000E-09  1.2000E-09  2.0000E-09   0.000       0.000       0.000       0.000       0.000    
   8   5.0000E-10  5.2000E-09  2.1000E-09  1.2000E-09  5.0000E-09   0.000       0.000       0.000       0.000       0.000    
   9   5.0000E-10  5.2000E-09  2.1000E-09  1.2000E-09  5.0000E-09   0.000       0.000       0.000       0.000       0.000    
  10   5.0000E-10  5.2000E-09  2.1000E-09  1.2000E-09  5.8000E-09   0.000       0.000       0.000       0.000       0.000    
  11   1.0000E-10  1.1000E-09  1.1000E-09  1.2000E-09  5.0000E-09   0.000       0.000       0.000       0.000       0.000    
  12   1.1000E-09  1.1000E-09  1.1000E-09  1.1000E-09  2.0000E-09   0.000       0.000       0.000       0.000       0.000    
  13   1.1000E-09  2.2000E-09  2.2000E-09  2.1000E-09  1.0000E-09   0.000       0.000       0.000       0.000       0.000    
  14   2.0000E-10  5.5000E-09  5.5000E-09  5.2000E-09  1.0000E-09   0.000       0.000       0.000       0.000       0.000    
  15    0.000      8.8000E-09  8.8000E-09   0.000       0.000       0.000       0.000       0.000       0.000       0.000    

                  ET RATE =  5.000000E-08

 USING ET EXTINCTION DEPTH FROM PREVIOUS STRESS PERIOD. CURRENT PERIOD IS:       6

 USING EXTINCTION WATER CONTENT FROM PREVIOUS STRESS PERIOD. CURRENT PERIOD IS:       6

 USING AIR ENTRY PRESSURE FROM PREVIOUS STRESS PERIOD. CURRENT PERIOD IS:       6

 USING ROOT PRESSURE HEAD FROM PREVIOUS STRESS PERIOD. CURRENT PERIOD IS:       6

 USING ROOT ACTIVITY FROM PREVIOUS STRESS PERIOD. CURRENT PERIOD IS:       6

 PROCESSING AG STRESS PERIOD DATA

 READING AG STRESS PERIOD DATA

 READING IRRIGATION SEGMENT

 READING IRRIGATION WELL

 READING SUPPLEMENTAL WELL

 END PROCESSING AG STRESS PERIOD DATA OPTIONS
 
 SOLVING FOR HEAD 
                                                   Max.-Head-Change                         Max.-Flux-Residual
  Residual-Control   Outer-Iter.   Inner-Iter.     Column Row Layer    Maximum-Head-Change  Column Row Layer    Maximum-Flux-Residual          L2-NORM 
          0                 1           2             4   13     1       0.1861624957E-01       4   13    1         0.1074566194E+01      0.1984483479E+01
          0                 2           2             4   13     1      -0.3087846340E-02       4   13    1        -0.1831634486E+00      0.3219299973E+00
          0                 3           2             4   13     1      -0.8080051388E-03       4   13    1        -0.4789919288E-01      0.8470777406E-01
          0                 4           1             2   13     1      -0.3205823998E-04       2   13    1        -0.1865294869E-02      0.3330981763E-02

    ------------------------------------------------
       NWT REQUIRED            4 OUTER ITERATIONS 
       AND A TOTAL OF          7 INNER ITERATIONS.
    ------------------------------------------------

 NO OUTPUT CONTROL FOR STRESS PERIOD    6   TIME STEP    1
 
 SOLVING FOR HEAD 
                                                   Max.-Head-Change                         Max.-Flux-Residual
  Residual-Control   Outer-Iter.   Inner-Iter.     Column Row Layer    Maximum-Head-Change  Column Row Layer    Maximum-Flux-Residual          L2-NORM 
          0                 1           2             4   13     1       0.1701891304E-01       4   13    1         0.9818774645E+00      0.1858647108E+01
          0                 2           2             4   13     1      -0.3078781127E-02       4   13    1        -0.1826016187E+00      0.3251992112E+00
          0                 3           2             3   13     1      -0.6037089295E-03       3   13    1        -0.3534178324E-01      0.6378333431E-01
          0                 4           2             4   13     1      -0.4814894847E-03       4   13    1        -0.2854372326E-01      0.4976465598E-01
          0                 5           1             2   13     1      -0.3514584369E-05       2   13    1        -0.2045204737E-03      0.3179594190E-03

    ------------------------------------------------
       NWT REQUIRED            5 OUTER ITERATIONS 
       AND A TOTAL OF          9 INNER ITERATIONS.
    ------------------------------------------------

 NO OUTPUT CONTROL FOR STRESS PERIOD    6   TIME STEP    2
 
 SOLVING FOR HEAD 
                                                   Max.-Head-Change                         Max.-Flux-Residual
  Residual-Control   Outer-Iter.   Inner-Iter.     Column Row Layer    Maximum-Head-Change  Column Row Layer    Maximum-Flux-Residual          L2-NORM 
          0                 1           2             2   13     1       0.1569566583E-01       4   13    1         0.9011609962E+00      0.1748395209E+01
          0                 2           2             3   13     1      -0.3026752079E-02       3   13    1        -0.1840116109E+00      0.3280219396E+00
          0                 3           2             4   13     1      -0.5823162318E-03       4   13    1        -0.3455518641E-01      0.6017373027E-01
          0                 4           2             4   13     1      -0.4925782003E-03       4   13    1        -0.2920598730E-01      0.5115089323E-01
          0                 5           1             4   13     1       0.3935685022E-05       4   13    1         0.2401518350E-03      0.3408900274E-03

    ------------------------------------------------
       NWT REQUIRED            5 OUTER ITERATIONS 
       AND A TOTAL OF          9 INNER ITERATIONS.
    ------------------------------------------------

 NO OUTPUT CONTROL FOR STRESS PERIOD    6   TIME STEP    3
 
 SOLVING FOR HEAD 
                                                   Max.-Head-Change                         Max.-Flux-Residual
  Residual-Control   Outer-Iter.   Inner-Iter.     Column Row Layer    Maximum-Head-Change  Column Row Layer    Maximum-Flux-Residual          L2-NORM 
          0                 1           2             2   13     1       0.1466040267E-01       2   13    1         0.8305246208E+00      0.1641265544E+01
          0                 2           2             4   13     1      -0.2972232719E-02       4   13    1        -0.1830741150E+00      0.3018258770E+00
          0                 3           2             2   13     1      -0.8841024254E-03       4   13    1        -0.5180885422E-01      0.9303715638E-01
          0                 4           2             2   13     1      -0.2063313797E-03       4   13    1        -0.1256348904E-01      0.2196224719E-01
          0                 5           1             2   13     1      -0.6124879292E-04       4   13    1        -0.3697227321E-02      0.6499805037E-02

    ------------------------------------------------
       NWT REQUIRED            5 OUTER ITERATIONS 
       AND A TOTAL OF          9 INNER ITERATIONS.
    ------------------------------------------------

 NO OUTPUT CONTROL FOR STRESS PERIOD    6   TIME STEP    4
 
 SOLVING FOR HEAD 
                                                   Max.-Head-Change                         Max.-Flux-Residual
  Residual-Control   Outer-Iter.   Inner-Iter.     Column Row Layer    Maximum-Head-Change  Column Row Layer    Maximum-Flux-Residual          L2-NORM 
          0                 1           2             2   13     1       0.1370390877E-01       2   13    1         0.7764255644E+00      0.1536759597E+01
          0                 2           2             2   13     1      -0.2537148476E-02       4   13    1        -0.1514799784E+00      0.2772407191E+00
          0                 3           2             2   13     1      -0.8925551940E-03       4   13    1        -0.5422606262E-01      0.9507835692E-01
          0                 4           2             2   13     1      -0.2034741604E-03       4   13    1        -0.1225241509E-01      0.2157786691E-01
          0                 5           1             2   13     1      -0.6444781252E-04       4   13    1        -0.3903733839E-02      0.6850579779E-02

    ------------------------------------------------
       NWT REQUIRED            5 OUTER ITERATIONS 
       AND A TOTAL OF          9 INNER ITERATIONS.
    ------------------------------------------------

 NO OUTPUT CONTROL FOR STRESS PERIOD    6   TIME STEP    5
 
 SOLVING FOR HEAD 
                                                   Max.-Head-Change                         Max.-Flux-Residual
  Residual-Control   Outer-Iter.   Inner-Iter.     Column Row Layer    Maximum-Head-Change  Column Row Layer    Maximum-Flux-Residual          L2-NORM 
          0                 1           2             2   13     1       0.1282186940E-01       2   13    1         0.7265155051E+00      0.1441225706E+01
          0                 2           2             2   13     1      -0.2456033788E-02       4   13    1        -0.1438812639E+00      0.2671354639E+00
          0                 3           2             2   13     1      -0.8883202966E-03       4   13    1        -0.5419405947E-01      0.9480839377E-01
          0                 4           2             2   13     1      -0.1965585143E-03       4   13    1        -0.1182015158E-01      0.2083812328E-01
          0                 5           1             2   13     1      -0.6439525460E-04       4   13    1        -0.3904832225E-02      0.6849430633E-02

    ------------------------------------------------
       NWT REQUIRED            5 OUTER ITERATIONS 
       AND A TOTAL OF          9 INNER ITERATIONS.
    ------------------------------------------------

 NO OUTPUT CONTROL FOR STRESS PERIOD    6   TIME STEP    6
 
 SOLVING FOR HEAD 
                                                   Max.-Head-Change                         Max.-Flux-Residual
  Residual-Control   Outer-Iter.   Inner-Iter.     Column Row Layer    Maximum-Head-Change  Column Row Layer    Maximum-Flux-Residual          L2-NORM 
          0                 1           2             2   13     1       0.1200714403E-01       2   13    1         0.6803970399E+00      0.1357802794E+01
          0                 2           2             2   13     1      -0.2382785951E-02       2   13    1        -0.1387236710E+00      0.2583645478E+00
          0                 3           2             2   13     1      -0.8983212139E-03       4   13    1        -0.5499071157E-01      0.9602462335E-01
          0                 4           2             2   13     1      -0.1810217476E-03       4   13    1        -0.1086116481E-01      0.1917694934E-01
          0                 5           1             2   13     1      -0.6865516686E-04       4   13    1        -0.4171094741E-02      0.7310738255E-02

    ------------------------------------------------
       NWT REQUIRED            5 OUTER ITERATIONS 
       AND A TOTAL OF          9 INNER ITERATIONS.
    ------------------------------------------------

 NO OUTPUT CONTROL FOR STRESS PERIOD    6   TIME STEP    7
 
 SOLVING FOR HEAD 
                                                   Max.-Head-Change                         Max.-Flux-Residual
  Residual-Control   Outer-Iter.   Inner-Iter.     Column Row Layer    Maximum-Head-Change  Column Row Layer    Maximum-Flux-Residual          L2-NORM 
          0                 1           2             2   13     1       0.1125604644E-01       2   13    1         0.6378657419E+00      0.1284941774E+01
          0                 2           2             2   13     1      -0.2312366358E-02       2   13    1        -0.1346265861E+00      0.2503034333E+00
          0                 3           2             2   13     1      -0.9134543125E-03       4   13    1        -0.5606529665E-01      0.9776003083E-01
          0                 4           2             2   13     1      -0.1593751776E-03       4   13    1        -0.9531809423E-02      0.1686578977E-01
          0                 5           1             2   13     1      -0.7558021740E-04       4   13    1        -0.4602140256E-02      0.8057481976E-02

    ------------------------------------------------
       NWT REQUIRED            5 OUTER ITERATIONS 
       AND A TOTAL OF          9 INNER ITERATIONS.
    ------------------------------------------------

 NO OUTPUT CONTROL FOR STRESS PERIOD    6   TIME STEP    8
 
 SOLVING FOR HEAD 
                                                   Max.-Head-Change                         Max.-Flux-Residual
  Residual-Control   Outer-Iter.   Inner-Iter.     Column Row Layer    Maximum-Head-Change  Column Row Layer    Maximum-Flux-Residual          L2-NORM 
          0                 1           2             2   13     1       0.1056386697E-01       2   13    1         0.5986585044E+00      0.1221172552E+01
          0                 2           2             2   13     1      -0.2247496687E-02       2   13    1        -0.1308511612E+00      0.2431397755E+00
          0                 3           2             2   13     1      -0.9262734999E-03       4   13    1        -0.5697112189E-01      0.9922749654E-01
          0                 4           2             2   13     1      -0.1404843892E-03       4   13    1        -0.8371884678E-02      0.1484772831E-01
          0                 5           1             2   13     1      -0.8334717438E-04       4   13    1        -0.5084023327E-02      0.8894070476E-02

    ------------------------------------------------
       NWT REQUIRED            5 OUTER ITERATIONS 
       AND A TOTAL OF          9 INNER ITERATIONS.
    ------------------------------------------------

 NO OUTPUT CONTROL FOR STRESS PERIOD    6   TIME STEP    9
 
 SOLVING FOR HEAD 
                                                   Max.-Head-Change                         Max.-Flux-Residual
  Residual-Control   Outer-Iter.   Inner-Iter.     Column Row Layer    Maximum-Head-Change  Column Row Layer    Maximum-Flux-Residual          L2-NORM 
          0                 1           2             2   13     1       0.9926486128E-02       2   13    1         0.5625450421E+00      0.1165254349E+01
          0                 2           2             2   13     1      -0.2192318200E-02       2   13    1        -0.1276385353E+00      0.2372327553E+00
          0                 3           2             4   13     1      -0.9265759671E-03       4   13    1        -0.5701325646E-01      0.9921165509E-01
          0                 4           2             2   13     1      -0.1318259841E-03       4   13    1        -0.7843894020E-02      0.1392734265E-01
          0                 5           1             2   13     1      -0.8883531837E-04       4   13    1        -0.5424649751E-02      0.9485325295E-02

    ------------------------------------------------
       NWT REQUIRED            5 OUTER ITERATIONS 
       AND A TOTAL OF          9 INNER ITERATIONS.
    ------------------------------------------------

 NO OUTPUT CONTROL FOR STRESS PERIOD    6   TIME STEP   10
 
 SOLVING FOR HEAD 
                                                   Max.-Head-Change                         Max.-Flux-Residual
  Residual-Control   Outer-Iter.   Inner-Iter.     Column Row Layer    Maximum-Head-Change  Column Row Layer    Maximum-Flux-Residual          L2-NORM 
          0                 1           2             2   13     1       0.9339709716E-02       2   13    1         0.5292903248E+00      0.1116101183E+01
          0                 2           2             2   13     1      -0.2140230755E-02       2   13    1        -0.1246050950E+00      0.2318419312E+00
          0                 3           2             4   13     1      -0.9295112229E-03       4   13    1        -0.5719432724E-01      0.9945930879E-01
          0                 4           1             2   13     1      -0.1206416908E-03       4   13    1        -0.7159829293E-02      0.1273484949E-01
          0                 5           1             2   13     1      -0.9634501747E-04       4   13    1        -0.5890113769E-02      0.1029435727E-01

    ------------------------------------------------
       NWT REQUIRED            5 OUTER ITERATIONS 
       AND A TOTAL OF          8 INNER ITERATIONS.
    ------------------------------------------------

 NO OUTPUT CONTROL FOR STRESS PERIOD    6   TIME STEP   11
 
 SOLVING FOR HEAD 
                                                   Max.-Head-Change                         Max.-Flux-Residual
  Residual-Control   Outer-Iter.   Inner-Iter.     Column Row Layer    Maximum-Head-Change  Column Row Layer    Maximum-Flux-Residual          L2-NORM 
          0                 1           2             2   13     1       0.8799820167E-02       2   13    1         0.4986858297E+00      0.1072789067E+01
          0                 2           2             2   13     1      -0.2092634062E-02       2   13    1        -0.1218324159E+00      0.2270645525E+00
          0                 3           2             4   13     1      -0.9316817114E-03       4   13    1        -0.5732823094E-01      0.9963854878E-01
          0                 4           1             2   13     1      -0.1093843634E-03       4   13    1        -0.6472642364E-02      0.1153513865E-01
          0                 5           1             2   13     1      -0.1052172580E-03       4   13    1        -0.6440216122E-02      0.1125086802E-01
          0                 6           1             2   13     1      -0.7081869014E-04       4   13    1        -0.4318764501E-02      0.7560143770E-02

    ------------------------------------------------
       NWT REQUIRED            6 OUTER ITERATIONS 
       AND A TOTAL OF          9 INNER ITERATIONS.
    ------------------------------------------------

 NO OUTPUT CONTROL FOR STRESS PERIOD    6   TIME STEP   12
 
 SOLVING FOR HEAD 
                                                   Max.-Head-Change                         Max.-Flux-Residual
  Residual-Control   Outer-Iter.   Inner-Iter.     Column Row Layer    Maximum-Head-Change  Column Row Layer    Maximum-Flux-Residual          L2-NORM 
          0                 1           2             2   13     1       0.8309574086E-02       2   13    1         0.4708888330E+00      0.1035097549E+01
          0                 2           2             2   13     1      -0.2046308572E-02       2   13    1        -0.1191333582E+00      0.2225484862E+00
          0                 3           2             4   13     1      -0.9408250167E-03       4   13    1        -0.5789085152E-01      0.1005805825E+00
          0                 4           1             2   13     1      -0.9315087898E-04       4   13    1        -0.5481224158E-02      0.9804030667E-02

    ------------------------------------------------
       NWT REQUIRED            4 OUTER ITERATIONS 
       AND A TOTAL OF          7 INNER ITERATIONS.
    ------------------------------------------------

 NO OUTPUT CONTROL FOR STRESS PERIOD    6   TIME STEP   13
 
 SOLVING FOR HEAD 
                                                   Max.-Head-Change                         Max.-Flux-Residual
  Residual-Control   Outer-Iter.   Inner-Iter.     Column Row Layer    Maximum-Head-Change  Column Row Layer    Maximum-Flux-Residual          L2-NORM 
          0                 1           2             2   13     1       0.7842660885E-02       2   13    1         0.4444127866E+00      0.1000247338E+01
          0                 2           2             2   13     1      -0.2009753526E-02       2   13    1        -0.1170026682E+00      0.2190710448E+00
          0                 3           2             4   13     1      -0.9789909343E-03       4   13    1        -0.6023802861E-01      0.1046432207E+00
          0                 4           1             2   13     1      -0.8611787617E-04       4   13    1        -0.5044514688E-02      0.9048656364E-02

    ------------------------------------------------
       NWT REQUIRED            4 OUTER ITERATIONS 
       AND A TOTAL OF          7 INNER ITERATIONS.
    ------------------------------------------------

 NO OUTPUT CONTROL FOR STRESS PERIOD    6   TIME STEP   14
 
 SOLVING FOR HEAD 
                                                   Max.-Head-Change                         Max.-Flux-Residual
  Residual-Control   Outer-Iter.   Inner-Iter.     Column Row Layer    Maximum-Head-Change  Column Row Layer    Maximum-Flux-Residual          L2-NORM 
          0                 1           2             2   13     1       0.7416700143E-02       2   13    1         0.4202543966E+00      0.9696085388E+00
          0                 2           2             2   13     1      -0.1972547069E-02       2   13    1        -0.1148339786E+00      0.2156029388E+00
          0                 3           2             4   13     1      -0.1029504249E-02       4   13    1        -0.6334446431E-01      0.1100339218E+00
          0                 4           1             2   13     1      -0.6809884986E-04       2   13    1        -0.3963212387E-02      0.7085353348E-02

    ------------------------------------------------
       NWT REQUIRED            4 OUTER ITERATIONS 
       AND A TOTAL OF          7 INNER ITERATIONS.
    ------------------------------------------------

 NO OUTPUT CONTROL FOR STRESS PERIOD    6   TIME STEP   15
 
 SOLVING FOR HEAD 
                                                   Max.-Head-Change                         Max.-Flux-Residual
  Residual-Control   Outer-Iter.   Inner-Iter.     Column Row Layer    Maximum-Head-Change  Column Row Layer    Maximum-Flux-Residual          L2-NORM 
          0                 1           2             2   13     1       0.7028322745E-02       2   13    1         0.3982238926E+00      0.9425908393E+00
          0                 2           2             2   13     1      -0.1940720984E-02       2   13    1        -0.1129782844E+00      0.2127337419E+00
          0                 3           2             4   13     1      -0.1064950020E-02       4   13    1        -0.6552409183E-01      0.1138187801E+00
          0                 4           1             2   13     1      -0.5664394894E-04       2   13    1        -0.3296407184E-02      0.5887284352E-02

    ------------------------------------------------
       NWT REQUIRED            4 OUTER ITERATIONS 
       AND A TOTAL OF          7 INNER ITERATIONS.
    ------------------------------------------------

 NO OUTPUT CONTROL FOR STRESS PERIOD    6   TIME STEP   16
 
 SOLVING FOR HEAD 
                                                   Max.-Head-Change                         Max.-Flux-Residual
  Residual-Control   Outer-Iter.   Inner-Iter.     Column Row Layer    Maximum-Head-Change  Column Row Layer    Maximum-Flux-Residual          L2-NORM 
          0                 1           2             2    2     1       0.6701307021E-02       2   13    1         0.3781214697E+00      0.9186428408E+00
          0                 2           2             2   13     1      -0.2070174288E-02       2   13    1        -0.1205045895E+00      0.2263560774E+00
          0                 3           2             4   13     1      -0.7402109575E-03       4   13    1        -0.4554996549E-01      0.7905000046E-01
          0                 4           2             2   13     1      -0.2804908468E-03       4   13    1        -0.1705890554E-01      0.2993668797E-01
          0                 5           1             4   13     1       0.7108230548E-05       4   13    1         0.4495714402E-03      0.7410492343E-03

    ------------------------------------------------
       NWT REQUIRED            5 OUTER ITERATIONS 
       AND A TOTAL OF          9 INNER ITERATIONS.
    ------------------------------------------------

 NO OUTPUT CONTROL FOR STRESS PERIOD    6   TIME STEP   17
 
 SOLVING FOR HEAD 
                                                   Max.-Head-Change                         Max.-Flux-Residual
  Residual-Control   Outer-Iter.   Inner-Iter.     Column Row Layer    Maximum-Head-Change  Column Row Layer    Maximum-Flux-Residual          L2-NORM 
          0                 1           2             2    2     1       0.6667098003E-02       2   13    1         0.3599318819E+00      0.8975705272E+00
          0                 2           2             2   13     1      -0.1879683486E-02       2   13    1        -0.1094192551E+00      0.2073510504E+00
          0                 3           2             4   13     1      -0.1102463434E-02       4   13    1        -0.6783072720E-01      0.1178237228E+00
          0                 4           1             2   13     1      -0.3039497165E-04       2   13    1        -0.1769057482E-02      0.3082657031E-02

    ------------------------------------------------
       NWT REQUIRED            4 OUTER ITERATIONS 
       AND A TOTAL OF          7 INNER ITERATIONS.
    ------------------------------------------------

 NO OUTPUT CONTROL FOR STRESS PERIOD    6   TIME STEP   18
 
 SOLVING FOR HEAD 
                                                   Max.-Head-Change                         Max.-Flux-Residual
  Residual-Control   Outer-Iter.   Inner-Iter.     Column Row Layer    Maximum-Head-Change  Column Row Layer    Maximum-Flux-Residual          L2-NORM 
          0                 1           2             2    2     1       0.6633343301E-02       2    2    1         0.3459117640E+00      0.8783166777E+00
          0                 2           2             2   13     1      -0.2019923412E-02       2   13    1        -0.1175735241E+00      0.2220746753E+00
          0                 3           2             4   13     1      -0.7550378572E-03       4   13    1        -0.4646149638E-01      0.8064857540E-01
          0                 4           2             2   13     1      -0.2628575977E-03       4   13    1        -0.1598990604E-01      0.2806257587E-01
          0                 5           1             4   13     1       0.1127419834E-04       4   13    1         0.7129406913E-03      0.1207296626E-02

    ------------------------------------------------
       NWT REQUIRED            5 OUTER ITERATIONS 
       AND A TOTAL OF          9 INNER ITERATIONS.
    ------------------------------------------------

 NO OUTPUT CONTROL FOR STRESS PERIOD    6   TIME STEP   19
 
 SOLVING FOR HEAD 
                                                   Max.-Head-Change                         Max.-Flux-Residual
  Residual-Control   Outer-Iter.   Inner-Iter.     Column Row Layer    Maximum-Head-Change  Column Row Layer    Maximum-Flux-Residual          L2-NORM 
          0                 1           2             2    2     1       0.6599948457E-02       2    2    1         0.3441570610E+00      0.8612460503E+00
          0                 2           2             2   13     1      -0.1835997085E-02       2   13    1        -0.1068704073E+00      0.2037407308E+00
          0                 3           2             4   13     1      -0.1121735853E-02       4   13    1        -0.6901530233E-01      0.1198909395E+00
          0                 4           1             2   13     1      -0.1699456352E-04       2   13    1        -0.9893404285E-03      0.1660009827E-02

    ------------------------------------------------
       NWT REQUIRED            4 OUTER ITERATIONS 
       AND A TOTAL OF          7 INNER ITERATIONS.
    ------------------------------------------------

 NO OUTPUT CONTROL FOR STRESS PERIOD    6   TIME STEP   20
 
 SOLVING FOR HEAD 
                                                   Max.-Head-Change                         Max.-Flux-Residual
  Residual-Control   Outer-Iter.   Inner-Iter.     Column Row Layer    Maximum-Head-Change  Column Row Layer    Maximum-Flux-Residual          L2-NORM 
          0                 1           2             2    2     1       0.6567082241E-02       2    2    1         0.3424301304E+00      0.8456110114E+00
          0                 2           2             2   13     1      -0.1811636477E-02       2   13    1        -0.1054498835E+00      0.2016648801E+00
          0                 3           2             4   13     1      -0.1159295692E-02       4   13    1        -0.7132470035E-01      0.1239160694E+00
          0                 4           1             4   13     1       0.1176073084E-04       4   13    1         0.7454615934E-03      0.1077831494E-02

    ------------------------------------------------
       NWT REQUIRED            4 OUTER ITERATIONS 
       AND A TOTAL OF          7 INNER ITERATIONS.
    ------------------------------------------------

 NO OUTPUT CONTROL FOR STRESS PERIOD    6   TIME STEP   21
 
 SOLVING FOR HEAD 
                                                   Max.-Head-Change                         Max.-Flux-Residual
  Residual-Control   Outer-Iter.   Inner-Iter.     Column Row Layer    Maximum-Head-Change  Column Row Layer    Maximum-Flux-Residual          L2-NORM 
          0                 1           2             2    2     1       0.6534562435E-02       2    2    1         0.3407215013E+00      0.8315120636E+00
          0                 2           2             2   13     1      -0.1794774851E-02       2   13    1        -0.1044658320E+00      0.2003376846E+00
          0                 3           2             4   13     1      -0.1170576552E-02       4   13    1        -0.7201804307E-01      0.1251299393E+00
          0                 4           1             4   13     1       0.2020301422E-04       4   13    1         0.1279263271E-02      0.1987889638E-02

    ------------------------------------------------
       NWT REQUIRED            4 OUTER ITERATIONS 
       AND A TOTAL OF          7 INNER ITERATIONS.
    ------------------------------------------------

 NO OUTPUT CONTROL FOR STRESS PERIOD    6   TIME STEP   22
 
 SOLVING FOR HEAD 
                                                   Max.-Head-Change                         Max.-Flux-Residual
  Residual-Control   Outer-Iter.   Inner-Iter.     Column Row Layer    Maximum-Head-Change  Column Row Layer    Maximum-Flux-Residual          L2-NORM 
          0                 1           2             2    2     1       0.6502383242E-02       2    2    1         0.3390308328E+00      0.8187283214E+00
          0                 2           2             2   13     1      -0.1779023897E-02       2   13    1        -0.1035466525E+00      0.1991063968E+00
          0                 3           2             4   13     1      -0.1179813765E-02       4   13    1        -0.7258572190E-01      0.1261272359E+00
          0                 4           1             4   13     1       0.2882493867E-04       4   13    1         0.1824444780E-02      0.2928900237E-02

    ------------------------------------------------
       NWT REQUIRED            4 OUTER ITERATIONS 
       AND A TOTAL OF          7 INNER ITERATIONS.
    ------------------------------------------------

 NO OUTPUT CONTROL FOR STRESS PERIOD    6   TIME STEP   23
 
 SOLVING FOR HEAD 
                                                   Max.-Head-Change                         Max.-Flux-Residual
  Residual-Control   Outer-Iter.   Inner-Iter.     Column Row Layer    Maximum-Head-Change  Column Row Layer    Maximum-Flux-Residual          L2-NORM 
          0                 1           2             2    2     1       0.6470712793E-02       2    2    1         0.3373669259E+00      0.8071020162E+00
          0                 2           2             2   13     1      -0.1763876831E-02       2   13    1        -0.1026628415E+00      0.1979159588E+00
          0                 3           2             4   13     1      -0.1297480613E-02       4   13    1        -0.7982024822E-01      0.1387261475E+00
          0                 4           1             4   13     1       0.8713893190E-04       4   13    1         0.5511632862E-02      0.9319315915E-02

    ------------------------------------------------
       NWT REQUIRED            4 OUTER ITERATIONS 
       AND A TOTAL OF          7 INNER ITERATIONS.
    ------------------------------------------------

 NO OUTPUT CONTROL FOR STRESS PERIOD    6   TIME STEP   24
 
 SOLVING FOR HEAD 
                                                   Max.-Head-Change                         Max.-Flux-Residual
  Residual-Control   Outer-Iter.   Inner-Iter.     Column Row Layer    Maximum-Head-Change  Column Row Layer    Maximum-Flux-Residual          L2-NORM 
          0                 1           2             2    2     1       0.6439369664E-02       2    2    1         0.3357202954E+00      0.7968362660E+00
          0                 2           2             2   13     1      -0.1750167682E-02       2   13    1        -0.1018628724E+00      0.1968648981E+00
          0                 3           2             4   13     1      -0.1221742158E-02       4   13    1        -0.7516321333E-01      0.1306310487E+00
          0                 4           1             4   13     1       0.8208566988E-04       4   13    1         0.5192195529E-02      0.8777207070E-02

    ------------------------------------------------
       NWT REQUIRED            4 OUTER ITERATIONS 
       AND A TOTAL OF          7 INNER ITERATIONS.
    ------------------------------------------------

 NO OUTPUT CONTROL FOR STRESS PERIOD    6   TIME STEP   25
 
 SOLVING FOR HEAD 
                                                   Max.-Head-Change                         Max.-Flux-Residual
  Residual-Control   Outer-Iter.   Inner-Iter.     Column Row Layer    Maximum-Head-Change  Column Row Layer    Maximum-Flux-Residual          L2-NORM 
          0                 1           2             2    2     1       0.6408435518E-02       2    2    1         0.3340951870E+00      0.7870021450E+00
          0                 2           2             2   13     1      -0.1739144205E-02       4   13    1        -0.1013133644E+00      0.1960438804E+00
          0                 3           2             4   13     1      -0.1225671372E-02       4   13    1        -0.7540448740E-01      0.1310605971E+00
          0                 4           1             4   13     1       0.8232843514E-04       4   13    1         0.5207504280E-02      0.8805715926E-02

    ------------------------------------------------
       NWT REQUIRED            4 OUTER ITERATIONS 
       AND A TOTAL OF          7 INNER ITERATIONS.
    ------------------------------------------------

 NO OUTPUT CONTROL FOR STRESS PERIOD    6   TIME STEP   26
 
 SOLVING FOR HEAD 
                                                   Max.-Head-Change                         Max.-Flux-Residual
  Residual-Control   Outer-Iter.   Inner-Iter.     Column Row Layer    Maximum-Head-Change  Column Row Layer    Maximum-Flux-Residual          L2-NORM 
          0                 1           2             2    2     1       0.6377816482E-02       2    2    1         0.3324867326E+00      0.7780099720E+00
          0                 2           2             2   13     1      -0.1728935897E-02       4   13    1        -0.1011852843E+00      0.1952859790E+00
          0                 3           2             4   13     1      -0.1220870916E-02       4   13    1        -0.7510900203E-01      0.1305567911E+00
          0                 4           1             4   13     1       0.8202927721E-04       4   13    1         0.5188576850E-02      0.8773179318E-02

    ------------------------------------------------
       NWT REQUIRED            4 OUTER ITERATIONS 
       AND A TOTAL OF          7 INNER ITERATIONS.
    ------------------------------------------------

 NO OUTPUT CONTROL FOR STRESS PERIOD    6   TIME STEP   27
 
 SOLVING FOR HEAD 
                                                   Max.-Head-Change                         Max.-Flux-Residual
  Residual-Control   Outer-Iter.   Inner-Iter.     Column Row Layer    Maximum-Head-Change  Column Row Layer    Maximum-Flux-Residual          L2-NORM 
          0                 1           2             2    2     1       0.6347681879E-02       2    2    1         0.3309037190E+00      0.7697256629E+00
          0                 2           2             2   13     1      -0.1721902111E-02       4   13    1        -0.1012270883E+00      0.1948280690E+00
          0                 3           2             4   13     1      -0.1209910054E-02       4   13    1        -0.7443469328E-01      0.1293944099E+00
          0                 4           1             4   13     1       0.8128116165E-04       4   13    1         0.5141262291E-02      0.8693788930E-02

    ------------------------------------------------
       NWT REQUIRED            4 OUTER ITERATIONS 
       AND A TOTAL OF          7 INNER ITERATIONS.
    ------------------------------------------------

 NO OUTPUT CONTROL FOR STRESS PERIOD    6   TIME STEP   28
 
 SOLVING FOR HEAD 
                                                   Max.-Head-Change                         Max.-Flux-Residual
  Residual-Control   Outer-Iter.   Inner-Iter.     Column Row Layer    Maximum-Head-Change  Column Row Layer    Maximum-Flux-Residual          L2-NORM 
          0                 1           2             2    2     1       0.6317850325E-02       2    2    1         0.3293367198E+00      0.7620531186E+00
          0                 2           2             2   13     1      -0.1713264873E-02       4   13    1        -0.1011440679E+00      0.1941854614E+00
          0                 3           2             4   13     1      -0.1209702664E-02       4   13    1        -0.7442164415E-01      0.1293820689E+00
          0                 4           1             4   13     1       0.7761256785E-04       4   13    1         0.4909262256E-02      0.8292007126E-02

    ------------------------------------------------
       NWT REQUIRED            4 OUTER ITERATIONS 
       AND A TOTAL OF          7 INNER ITERATIONS.
    ------------------------------------------------

 NO OUTPUT CONTROL FOR STRESS PERIOD    6   TIME STEP   29
 
 SOLVING FOR HEAD 
                                                   Max.-Head-Change                         Max.-Flux-Residual
  Residual-Control   Outer-Iter.   Inner-Iter.     Column Row Layer    Maximum-Head-Change  Column Row Layer    Maximum-Flux-Residual          L2-NORM 
          0                 1           2             2    2     1       0.5802211515E-02       2    2    1         0.3023736690E+00      0.6352263596E+00
          0                 2           2             2   13     1      -0.1532790996E-02       4   13    1        -0.8993020178E-01      0.1744584882E+00
          0                 3           2             4   13     1      -0.1198991954E-02       4   13    1        -0.7371908027E-01      0.1280863222E+00
          0                 4           1             4   13     1       0.7285827335E-04       4   13    1         0.4605869111E-02      0.7766399762E-02

    ------------------------------------------------
       NWT REQUIRED            4 OUTER ITERATIONS 
       AND A TOTAL OF          7 INNER ITERATIONS.
    ------------------------------------------------

 NO OUTPUT CONTROL FOR STRESS PERIOD    6   TIME STEP   30



 STREAM LISTING     PERIOD      6   STEP       30

 LAYER ROW COL. STREAM  RCH.  FLOW INTO     FLOW TO   FLOW OUT OF   OVRLND.     DIRECT     STREAM       STREAM     STREAM     STREAM   STREAMBED  STREAMBED
                SEG.NO.  NO.  STRM. RCH.    AQUIFER    STRM. RCH.    RUNOFF     PRECIP       ET          HEAD       DEPTH      WIDTH   CONDCTNC.   GRADIENT

   1    1    1     1     1    6.9266E+01  4.0352E-01   6.8863E+01  0.000E+00  0.000E+00  0.000E+00  1.09468E+03  1.634E+00  1.935E+01  8.707E-02  1.545E+00
   1    2    2     1     2    6.8863E+01  6.2503E-01   6.8238E+01  0.000E+00  0.000E+00  0.000E+00  1.08969E+03  1.628E+00  1.929E+01  1.350E-01  1.543E+00
   1    3    3     1     3    6.8238E+01  5.3316E-01   6.7704E+01  0.000E+00  0.000E+00  0.000E+00  1.08404E+03  1.622E+00  1.923E+01  1.154E-01  1.541E+00
   1    3    4     1     4    6.7704E+01  4.9106E-01   6.7213E+01  0.000E+00  0.000E+00  0.000E+00  1.07902E+03  1.616E+00  1.917E+01  1.064E-01  1.539E+00
   1    4    5     2     1    6.5213E+01  4.0112E-01   6.4812E+01  0.000E+00  0.000E+00  0.000E+00  1.07408E+03  2.143E+00  1.200E+01  7.800E-02  1.714E+00
   1    5    6     2     2    6.4812E+01  3.0814E-01   6.4504E+01  0.000E+00  0.000E+00  0.000E+00  1.06865E+03  2.136E+00  1.200E+01  6.000E-02  1.712E+00
   1    6    6     2     3    6.4504E+01  3.0777E-01   6.4196E+01  0.000E+00  0.000E+00  0.000E+00  1.06392E+03  2.129E+00  1.200E+01  6.000E-02  1.710E+00
   1    7    6     2     4    6.4196E+01  3.0740E-01   6.3889E+01  0.000E+00  0.000E+00  0.000E+00  1.05920E+03  2.123E+00  1.200E+01  6.000E-02  1.708E+00
   1    8    6     2     5    6.3889E+01  3.0704E-01   6.3582E+01  0.000E+00  0.000E+00  0.000E+00  1.05448E+03  2.117E+00  1.200E+01  6.000E-02  1.706E+00
   1    3    5     3     1    2.0000E+00  2.8252E-01   1.7175E+00  0.000E+00  0.000E+00  0.000E+00  1.07555E+03  1.909E+00  9.636E+00  7.227E-02  1.955E+00
   1    3    6     3     2    1.7175E+00  2.4905E-01   1.4684E+00  0.000E+00  0.000E+00  0.000E+00  1.07264E+03  1.727E+00  8.909E+00  6.682E-02  1.864E+00
   1    3    7     3     3    1.4684E+00  1.9718E-01   1.2712E+00  0.000E+00  0.000E+00  0.000E+00  1.06987E+03  1.555E+00  8.218E+00  5.547E-02  1.777E+00
   1    4    8     3     4    1.2712E+00  2.2567E-01   1.0456E+00  0.000E+00  0.000E+00  0.000E+00  1.06682E+03  1.364E+00  7.455E+00  6.709E-02  1.682E+00
   1    5    8     3     5    1.0456E+00  1.5790E-01   8.8768E-01  0.000E+00  0.000E+00  0.000E+00  1.06362E+03  1.164E+00  6.655E+00  4.991E-02  1.582E+00
   1    6    8     3     6    8.8768E-01  5.5980E-02   8.3170E-01  0.000E+00  0.000E+00  0.000E+00  1.06158E+03  1.036E+00  6.145E+00  1.844E-02  1.518E+00
   1    5   10     4     1    1.0000E+01  9.0919E-02   9.9091E+00  0.000E+00  0.000E+00  0.000E+00  1.07836E+03  6.368E-01  1.000E+01  2.500E-02  1.212E+00
   1    5    9     4     2    9.9091E+00  1.8158E-01   9.7275E+00  0.000E+00  0.000E+00  0.000E+00  1.07154E+03  6.315E-01  1.000E+01  5.000E-02  1.211E+00
   1    6    8     4     3    9.7275E+00  1.2689E-01   9.6006E+00  0.000E+00  0.000E+00  0.000E+00  1.06381E+03  6.256E-01  1.000E+01  3.500E-02  1.209E+00
   1    6    8     5     1    1.0432E+01  2.2686E-01   1.0205E+01  0.000E+00  0.000E+00  0.000E+00  1.05868E+03  6.790E-01  1.542E+01  6.166E-02  1.226E+00
   1    7    7     5     2    1.0205E+01  2.7894E-01   9.9265E+00  0.000E+00  0.000E+00  0.000E+00  1.05417E+03  6.732E-01  1.519E+01  7.594E-02  1.224E+00
   1    8    7     5     3    9.9265E+00  1.9221E-01   9.7343E+00  0.000E+00  0.000E+00  0.000E+00  1.04992E+03  6.676E-01  1.497E+01  5.241E-02  1.223E+00
   1    8    6     5     4    9.7343E+00  1.3577E-01   9.5985E+00  0.000E+00  0.000E+00  0.000E+00  1.04691E+03  6.637E-01  1.482E+01  3.706E-02  1.221E+00
   1    9    6     6     1    6.5846E+01  3.1086E-01   6.5535E+01  0.000E+00  0.000E+00  0.000E+00  1.04491E+03  2.181E+00  1.200E+01  6.000E-02  1.727E+00
   1   10    7     6     2    6.5535E+01  3.1049E-01   6.5224E+01  0.000E+00  0.000E+00  0.000E+00  1.04036E+03  2.175E+00  1.200E+01  6.000E-02  1.725E+00
   1   11    7     6     3    6.5224E+01  3.1011E-01   6.4914E+01  0.000E+00  0.000E+00  0.000E+00  1.03580E+03  2.169E+00  1.200E+01  6.000E-02  1.723E+00
   1   12    7     6     4    6.4914E+01  3.0974E-01   6.4604E+01  0.000E+00  0.000E+00  0.000E+00  1.03125E+03  2.162E+00  1.200E+01  6.000E-02  1.721E+00
   1   13    7     6     5    6.4604E+01  2.1949E-02   6.4582E+01  0.000E+00  0.000E+00  0.000E+00  1.02807E+03  2.159E+00  1.200E+01  2.400E-02  3.049E-01
   1   14    9     7     1    1.5000E+02  1.3362E+00   1.4866E+02  0.000E+00  0.000E+00  0.000E+00  1.03987E+03  2.288E+00  5.529E+01  5.593E-01  7.963E-01
   1   13    8     7     2    1.4866E+02  1.8220E+00   1.4684E+02  0.000E+00  0.000E+00  0.000E+00  1.03478E+03  2.279E+00  5.526E+01  6.148E-01  9.879E-01
   1   13    7     7     3    1.4684E+02  1.4165E+00   1.4543E+02  0.000E+00  0.000E+00  0.000E+00  1.02969E+03  2.271E+00  5.522E+01  5.585E-01  8.455E-01
   1   13    6     8     1    2.1001E+02  1.0212E+00   2.0899E+02  0.000E+00  0.000E+00  0.000E+00  1.02507E+03  3.193E+00  4.630E+01  4.718E-01  7.215E-01
   1   13    5     8     2    2.0899E+02  2.0913E-01   2.0878E+02  0.000E+00  0.000E+00  0.000E+00  1.01881E+03  3.190E+00  4.625E+01  4.713E-01  1.479E-01
   1   13    4     8     3    2.0878E+02 -2.3800E+00   2.1116E+02  0.000E+00  0.000E+00  0.000E+00  1.01257E+03  3.196E+00  4.634E+01  4.722E+00 -1.680E-01
   1   13    3     8     4    2.1116E+02 -3.5484E+00   2.1471E+02  0.000E+00  0.000E+00  0.000E+00  1.00634E+03  3.213E+00  4.658E+01  4.747E+00 -2.492E-01
   1   13    2     8     5    2.1471E+02 -2.5521E+00   2.1726E+02  0.000E+00  0.000E+00  0.000E+00  1.00010E+03  3.230E+00  4.683E+01  4.772E+00 -1.783E-01
   1   13    1     8     6    2.1726E+02 -1.9207E+00   2.1918E+02  0.000E+00  0.000E+00  0.000E+00  9.95117E+02  3.242E+00  4.701E+01  2.874E+00 -2.227E-01
   1    8    6     9     1    7.3349E+00  0.0000E+00   7.3349E+00  0.000E+00  0.000E+00  0.000E+00  1.08062E+03  1.875E+00  4.000E+00  0.000E+00  1.625E+00
   1    8    5     9     2    7.3349E+00  0.0000E+00   7.3349E+00  0.000E+00  0.000E+00  0.000E+00  1.08012E+03  1.875E+00  4.000E+00  0.000E+00  1.625E+00





UNSATURATED ZONE PACKAGE VOLUMETRIC BUDGET FOR  TIME STEP    30 STRESS PERIOD    6
  ------------------------------------------------------------------------------



     CUMULATIVE VOLUMES      L**3       RATES FOR THIS TIME STEP      L**3/T
     ------------------                 ------------------------

           IN:                                      IN:
           ---                                      ---
        INFILTRATION =    86136004.8103          INFILTRATION =          11.7425

          OUT:                                     OUT:
          ----                                     ----
              UZF ET =    66342022.4868                UZF ET =          11.6199
        UZF RECHARGE =       73224.0000          UZF RECHARGE =       0.0000E+00

            IN - OUT =    19720758.3235              IN - OUT =           0.1226

          STORAGE:                                 STORAGE:
          --------                                 --------
      STORAGE CHANGE =    19720757.5223        STORAGE CHANGE =           0.1226

 PERCENT DISCREPANCY IS DIFFERENCE BETWEEN IN-OUT MINUS CHANGE IN STORAGE
 DIVIDED BY THE AVERAGE OF IN AND OUT TIMES 100

 PERCENT DISCREPANCY =           0.00     PERCENT DISCREPANCY =           0.00






1
  VOLUMETRIC BUDGET FOR ENTIRE MODEL AT END OF TIME STEP   30, STRESS PERIOD   6
  ------------------------------------------------------------------------------

     CUMULATIVE VOLUMES      L**3       RATES FOR THIS TIME STEP      L**3/T
     ------------------                 ------------------------

           IN:                                      IN:
           ---                                      ---
               AG WELLS  =           0.0000                 AG WELLS  =           0.0000
      DIVERSION SEGMENTS =    28103594.0000        DIVERSION SEGMENTS =           7.3349
           GW IRRIGATION =           0.0000             GW IRRIGATION =           0.0000
           SW IRRIGATION =           0.0000             SW IRRIGATION =           0.0000
        SYSTEM LOSSES GW =           0.0000          SYSTEM LOSSES GW =           0.0000
        SYSTEM LOSSES SW =           0.0000          SYSTEM LOSSES SW =           0.0000

                TOTAL IN =    28103594.0000                  TOTAL IN =           7.3349

          OUT:                                     OUT:
          ----                                     ----
               AG WELLS  =           0.0000                 AG WELLS  =           0.0000
      DIVERSION SEGMENTS =           0.0000        DIVERSION SEGMENTS =           0.0000
           GW IRRIGATION =           0.0000             GW IRRIGATION =           0.0000
           SW IRRIGATION =    28104160.0000             SW IRRIGATION =           7.3350
        SYSTEM LOSSES GW =           0.0000          SYSTEM LOSSES GW =           0.0000
        SYSTEM LOSSES SW =           0.0000          SYSTEM LOSSES SW =           0.0000

               TOTAL OUT =    28104160.0000                 TOTAL OUT =           7.3350

                IN - OUT =        -566.0000                  IN - OUT =      -1.4591E-04

     PERCENT DISCREPANCY =          -0.00         PERCENT DISCREPANCY =          -0.00



1
  VOLUMETRIC BUDGET FOR ENTIRE MODEL AT END OF TIME STEP   30, STRESS PERIOD   6
  ------------------------------------------------------------------------------

     CUMULATIVE VOLUMES      L**3       RATES FOR THIS TIME STEP      L**3/T
     ------------------                 ------------------------

           IN:                                      IN:
           ---                                      ---
             STORAGE     =     9359678.0000               STORAGE     =           0.5022
       CONSTANT HEAD     =           0.0000         CONSTANT HEAD     =           0.0000
     HEAD DEP BOUNDS     =     3782076.0000       HEAD DEP BOUNDS     =           0.2858
      STREAM LEAKAGE     =   161120048.0000        STREAM LEAKAGE     =          13.1539
        UZF RECHARGE     =       73223.9531          UZF RECHARGE     =           0.0000
               GW ET     =           0.0000                 GW ET     =           0.0000
     SURFACE LEAKAGE     =           0.0000       SURFACE LEAKAGE     =           0.0000
           AG WELLS      =           0.0000             AG WELLS      =           0.0000

                TOTAL IN =   174335024.0000                  TOTAL IN =          13.9419

          OUT:                                     OUT:
          ----                                     ----
             STORAGE     =    31847798.0000               STORAGE     =           2.8632
       CONSTANT HEAD     =           0.0000         CONSTANT HEAD     =           0.0000
     HEAD DEP BOUNDS     =     3858481.7500       HEAD DEP BOUNDS     =           0.2958
      STREAM LEAKAGE     =   137913840.0000        STREAM LEAKAGE     =          10.4012
        UZF RECHARGE     =           0.0000          UZF RECHARGE     =           0.0000
               GW ET     =      717906.1250                 GW ET     =           0.3823
     SURFACE LEAKAGE     =           0.0000       SURFACE LEAKAGE     =           0.0000
           AG WELLS      =           0.0000             AG WELLS      =           0.0000

               TOTAL OUT =   174338032.0000                 TOTAL OUT =          13.9426

                IN - OUT =       -3008.0000                  IN - OUT =      -6.9809E-04

     PERCENT DISCREPANCY =          -0.00         PERCENT DISCREPANCY =          -0.01






         TIME SUMMARY AT END OF TIME STEP   30 IN STRESS PERIOD    6
                    SECONDS     MINUTES      HOURS       DAYS        YEARS
                    -----------------------------------------------------------
   TIME STEP LENGTH  87667.      1461.1      24.352      1.0147     2.77799E-03
 STRESS PERIOD TIME 2.63000E+06  43833.      730.56      30.440     8.33397E-02
         TOTAL TIME 1.32364E+07 2.20607E+05  3676.8      153.20     0.41944    
1
1
                            STRESS PERIOD NO.    7, LENGTH =   2630000.    
                            -----------------------------------------------

                              NUMBER OF TIME STEPS =    30

                               MULTIPLIER FOR DELT =     1.000

                            INITIAL TIME STEP SIZE =   87666.66    

 REUSING NON-PARAMETER GHB CELLS FROM LAST STRESS PERIOD

      2 GHB CELLS

 REUSING STREAM SEGMENT DATA FROM LAST STRESS PERIOD



            AREAL INFILTRATION RATE
 READING ON UNIT   19 WITH FORMAT: (10F4.0)            

            1           2           3           4           5           6           7           8           9          10
 ........................................................................................................................
   1   1.2000E-09   0.000       0.000       0.000       0.000       0.000       0.000       0.000       0.000       0.000    
   2   2.1000E-09  2.0000E-09  8.0000E-10  8.5000E-09   0.000       0.000       0.000       0.000       0.000       0.000    
   3   5.0000E-10  1.1000E-09  8.8000E-09  5.5000E-09   0.000       0.000       0.000       0.000       0.000       0.000    
   4   8.5000E-09  1.1000E-09  1.1000E-09  1.1000E-09  2.0000E-09   0.000       0.000       0.000       0.000       0.000    
   5   8.5000E-09  1.1000E-09  1.1000E-09  1.1000E-09  1.1000E-09   0.000       0.000       0.000       0.000       0.000    
   6   8.5000E-09  5.2000E-09  2.1000E-09  1.1000E-09  1.5000E-09   0.000       0.000       0.000       0.000       0.000    
   7   8.5000E-09  5.2000E-09  2.1000E-09  1.2000E-09  2.0000E-09   0.000       0.000       0.000       0.000       0.000    
   8   5.0000E-10  5.2000E-09  2.1000E-09  1.2000E-09  5.0000E-09   0.000       0.000       0.000       0.000       0.000    
   9   5.0000E-10  5.2000E-09  2.1000E-09  1.2000E-09  5.0000E-09   0.000       0.000       0.000       0.000       0.000    
  10   5.0000E-10  5.2000E-09  2.1000E-09  1.2000E-09  5.8000E-09   0.000       0.000       0.000       0.000       0.000    
  11   1.0000E-10  1.1000E-09  1.1000E-09  1.2000E-09  5.0000E-09   0.000       0.000       0.000       0.000       0.000    
  12   1.1000E-09  1.1000E-09  1.1000E-09  1.1000E-09  2.0000E-09   0.000       0.000       0.000       0.000       0.000    
  13   1.1000E-09  2.2000E-09  2.2000E-09  2.1000E-09  1.0000E-09   0.000       0.000       0.000       0.000       0.000    
  14   2.0000E-10  5.5000E-09  5.5000E-09  5.2000E-09  1.0000E-09   0.000       0.000       0.000       0.000       0.000    
  15    0.000      8.8000E-09  8.8000E-09   0.000       0.000       0.000       0.000       0.000       0.000       0.000    

                  ET RATE =  1.500000E-07

 USING ET EXTINCTION DEPTH FROM PREVIOUS STRESS PERIOD. CURRENT PERIOD IS:       7

 USING EXTINCTION WATER CONTENT FROM PREVIOUS STRESS PERIOD. CURRENT PERIOD IS:       7

 USING AIR ENTRY PRESSURE FROM PREVIOUS STRESS PERIOD. CURRENT PERIOD IS:       7

 USING ROOT PRESSURE HEAD FROM PREVIOUS STRESS PERIOD. CURRENT PERIOD IS:       7

 USING ROOT ACTIVITY FROM PREVIOUS STRESS PERIOD. CURRENT PERIOD IS:       7

 PROCESSING AG STRESS PERIOD DATA

 READING AG STRESS PERIOD DATA

 READING IRRIGATION SEGMENT

 READING IRRIGATION WELL

 READING SUPPLEMENTAL WELL

 END PROCESSING AG STRESS PERIOD DATA OPTIONS
 
 SOLVING FOR HEAD 
                                                   Max.-Head-Change                         Max.-Flux-Residual
  Residual-Control   Outer-Iter.   Inner-Iter.     Column Row Layer    Maximum-Head-Change  Column Row Layer    Maximum-Flux-Residual          L2-NORM 
          0                 1           2             3   13     1      -0.7391911915E-02       3   13    1        -0.4743389623E+00      0.8341936429E+00
          0                 2           2             2   13     1      -0.4944088174E-02       2   13    1        -0.2796452973E+00      0.4776063109E+00
          0                 3           2             2   13     1      -0.1100868995E-02       4   13    1        -0.6935647553E-01      0.1204538839E+00
          0                 4           2             2   13     1      -0.3293625489E-03       4   13    1        -0.1918311877E-01      0.3405798586E-01
          0                 5           1             2   13     1      -0.6683805100E-04       4   13    1        -0.3999966259E-02      0.7078637922E-02

    ------------------------------------------------
       NWT REQUIRED            5 OUTER ITERATIONS 
       AND A TOTAL OF          9 INNER ITERATIONS.
    ------------------------------------------------

 NO OUTPUT CONTROL FOR STRESS PERIOD    7   TIME STEP    1
 
 SOLVING FOR HEAD 
                                                   Max.-Head-Change                         Max.-Flux-Residual
  Residual-Control   Outer-Iter.   Inner-Iter.     Column Row Layer    Maximum-Head-Change  Column Row Layer    Maximum-Flux-Residual          L2-NORM 
          0                 1           2             2    2     1       0.5051905024E-02       3   13    1        -0.3167947077E+00      0.6728280655E+00
          0                 2           2             2   13     1      -0.5525740111E-02       2   13    1        -0.3210904062E+00      0.5670540441E+00
          0                 3           2             2   13     1      -0.1227894172E-02       2   13    1        -0.7131552236E-01      0.1235687319E+00
          0                 4           2             2   13     1      -0.5210541394E-03       4   13    1        -0.3048524691E-01      0.5416886664E-01
          0                 5           1             2   13     1      -0.4985616560E-04       2   13    1        -0.2898396683E-02      0.4509356586E-02

    ------------------------------------------------
       NWT REQUIRED            5 OUTER ITERATIONS 
       AND A TOTAL OF          9 INNER ITERATIONS.
    ------------------------------------------------

 NO OUTPUT CONTROL FOR STRESS PERIOD    7   TIME STEP    2
 
 SOLVING FOR HEAD 
                                                   Max.-Head-Change                         Max.-Flux-Residual
  Residual-Control   Outer-Iter.   Inner-Iter.     Column Row Layer    Maximum-Head-Change  Column Row Layer    Maximum-Flux-Residual          L2-NORM 
          0                 1           2             2    2     1       0.5032316814E-02       2    2    1         0.2621106848E+00      0.5734157232E+00
          0                 2           2             2   13     1      -0.5579578070E-02       4   13    1        -0.3280529963E+00      0.5838610502E+00
          0                 3           2             2   13     1      -0.1231339746E-02       2   13    1        -0.7152268638E-01      0.1227641409E+00
          0                 4           2             2   13     1      -0.5260472312E-03       4   13    1        -0.3094557850E-01      0.5484791711E-01
          0                 5           1             2   13     1      -0.4706444542E-04       2   13    1        -0.2736523031E-02      0.4196168900E-02

    ------------------------------------------------
       NWT REQUIRED            5 OUTER ITERATIONS 
       AND A TOTAL OF          9 INNER ITERATIONS.
    ------------------------------------------------

 NO OUTPUT CONTROL FOR STRESS PERIOD    7   TIME STEP    3
 
 SOLVING FOR HEAD 
                                                   Max.-Head-Change                         Max.-Flux-Residual
  Residual-Control   Outer-Iter.   Inner-Iter.     Column Row Layer    Maximum-Head-Change  Column Row Layer    Maximum-Flux-Residual          L2-NORM 
          0                 1           2             2    2     1       0.5012882711E-02       2    2    1         0.2610905037E+00      0.5375749692E+00
          0                 2           2             2   13     1      -0.5632357319E-02       4   13    1        -0.3401291078E+00      0.5980240067E+00
          0                 3           2             2   13     1      -0.1241356674E-02       2   13    1        -0.7210959834E-01      0.1228990619E+00
          0                 4           2             2   13     1      -0.5290044635E-03       4   13    1        -0.3122560638E-01      0.5525528500E-01
          0                 5           1             2   13     1      -0.4459563586E-04       2   13    1        -0.2593331344E-02      0.3925038286E-02

    ------------------------------------------------
       NWT REQUIRED            5 OUTER ITERATIONS 
       AND A TOTAL OF          9 INNER ITERATIONS.
    ------------------------------------------------

 NO OUTPUT CONTROL FOR STRESS PERIOD    7   TIME STEP    4
 
 SOLVING FOR HEAD 
                                                   Max.-Head-Change                         Max.-Flux-Residual
  Residual-Control   Outer-Iter.   Inner-Iter.     Column Row Layer    Maximum-Head-Change  Column Row Layer    Maximum-Flux-Residual          L2-NORM 
          0                 1           2             2    2     1       0.4993774053E-02       2    2    1         0.2600874183E+00      0.5454081207E+00
          0                 2           2             2   13     1      -0.5682531165E-02       4   13    1        -0.3498194678E+00      0.6098285392E+00
          0                 3           2             2   13     1      -0.1250787158E-02       4   13    1        -0.7635990586E-01      0.1335342042E+00
          0                 4           2             2   13     1      -0.5323495212E-03       4   13    1        -0.3271741678E-01      0.5693478418E-01
          0                 5           1             2   13     1      -0.4206320410E-04       4   13    1        -0.2509788439E-02      0.4439130289E-02

    ------------------------------------------------
       NWT REQUIRED            5 OUTER ITERATIONS 
       AND A TOTAL OF          9 INNER ITERATIONS.
    ------------------------------------------------

 OUTPUT CONTROL FOR STRESS PERIOD    7   TIME STEP    5
    PRINT BUDGET
    SAVE BUDGET
 UBDSV1 SAVING "         STORAGE" ON UNIT 102 AT TIME STEP  5, STRESS PERIOD   7
 UBDSV2 SAVING "   CONSTANT HEAD" ON UNIT 102 AT TIME STEP  5, STRESS PERIOD   7
 UBDSV1 SAVING "FLOW RIGHT FACE " ON UNIT 102 AT TIME STEP  5, STRESS PERIOD   7
 UBDSV1 SAVING "FLOW FRONT FACE " ON UNIT 102 AT TIME STEP  5, STRESS PERIOD   7

  HEAD DEP BOUNDS   PERIOD    7   STEP     5
 BOUNDARY      1   LAYER   1   ROW    13   COL     1   RATE   -0.295277    
 BOUNDARY      2   LAYER   1   ROW    14   COL     9   RATE    0.285785    



 STREAM LISTING     PERIOD      7   STEP        5

 LAYER ROW COL. STREAM  RCH.  FLOW INTO     FLOW TO   FLOW OUT OF   OVRLND.     DIRECT     STREAM       STREAM     STREAM     STREAM   STREAMBED  STREAMBED
                SEG.NO.  NO.  STRM. RCH.    AQUIFER    STRM. RCH.    RUNOFF     PRECIP       ET          HEAD       DEPTH      WIDTH   CONDCTNC.   GRADIENT

   1    1    1     1     1    6.2250E+01  3.7978E-01   6.1870E+01  0.000E+00  0.000E+00  0.000E+00  1.09460E+03  1.553E+00  1.854E+01  8.342E-02  1.518E+00
   1    2    2     1     2    6.1870E+01  5.8817E-01   6.1282E+01  0.000E+00  0.000E+00  0.000E+00  1.08961E+03  1.547E+00  1.848E+01  1.294E-01  1.516E+00
   1    3    3     1     3    6.1282E+01  5.0163E-01   6.0781E+01  0.000E+00  0.000E+00  0.000E+00  1.08396E+03  1.540E+00  1.841E+01  1.105E-01  1.513E+00
   1    3    4     1     4    6.0781E+01  4.6194E-01   6.0319E+01  0.000E+00  0.000E+00  0.000E+00  1.07894E+03  1.534E+00  1.836E+01  1.019E-01  1.511E+00
   1    4    5     2     1    5.8319E+01  3.9026E-01   5.7928E+01  0.000E+00  0.000E+00  0.000E+00  1.07394E+03  2.003E+00  1.200E+01  7.800E-02  1.668E+00
   1    5    6     2     2    5.7928E+01  2.9977E-01   5.7629E+01  0.000E+00  0.000E+00  0.000E+00  1.06851E+03  1.996E+00  1.200E+01  6.000E-02  1.665E+00
   1    6    6     2     3    5.7629E+01  2.9940E-01   5.7329E+01  0.000E+00  0.000E+00  0.000E+00  1.06378E+03  1.990E+00  1.200E+01  6.000E-02  1.663E+00
   1    7    6     2     4    5.7329E+01  2.9903E-01   5.7030E+01  0.000E+00  0.000E+00  0.000E+00  1.05906E+03  1.984E+00  1.200E+01  6.000E-02  1.661E+00
   1    8    6     2     5    5.7030E+01  2.9865E-01   5.6732E+01  0.000E+00  0.000E+00  0.000E+00  1.05434E+03  1.978E+00  1.200E+01  6.000E-02  1.659E+00
   1    3    5     3     1    2.0000E+00  2.8252E-01   1.7175E+00  0.000E+00  0.000E+00  0.000E+00  1.07555E+03  1.909E+00  9.636E+00  7.227E-02  1.955E+00
   1    3    6     3     2    1.7175E+00  2.4905E-01   1.4684E+00  0.000E+00  0.000E+00  0.000E+00  1.07264E+03  1.727E+00  8.909E+00  6.682E-02  1.864E+00
   1    3    7     3     3    1.4684E+00  1.9718E-01   1.2712E+00  0.000E+00  0.000E+00  0.000E+00  1.06987E+03  1.555E+00  8.218E+00  5.547E-02  1.777E+00
   1    4    8     3     4    1.2712E+00  2.2567E-01   1.0456E+00  0.000E+00  0.000E+00  0.000E+00  1.06682E+03  1.364E+00  7.455E+00  6.709E-02  1.682E+00
   1    5    8     3     5    1.0456E+00  1.5790E-01   8.8768E-01  0.000E+00  0.000E+00  0.000E+00  1.06362E+03  1.164E+00  6.655E+00  4.991E-02  1.582E+00
   1    6    8     3     6    8.8768E-01  5.5980E-02   8.3170E-01  0.000E+00  0.000E+00  0.000E+00  1.06158E+03  1.036E+00  6.145E+00  1.844E-02  1.518E+00
   1    5   10     4     1    1.0000E+01  9.0919E-02   9.9091E+00  0.000E+00  0.000E+00  0.000E+00  1.07836E+03  6.368E-01  1.000E+01  2.500E-02  1.212E+00
   1    5    9     4     2    9.9091E+00  1.8158E-01   9.7275E+00  0.000E+00  0.000E+00  0.000E+00  1.07154E+03  6.315E-01  1.000E+01  5.000E-02  1.211E+00
   1    6    8     4     3    9.7275E+00  1.2689E-01   9.6006E+00  0.000E+00  0.000E+00  0.000E+00  1.06381E+03  6.256E-01  1.000E+01  3.500E-02  1.209E+00
   1    6    8     5     1    1.0432E+01  2.2686E-01   1.0205E+01  0.000E+00  0.000E+00  0.000E+00  1.05868E+03  6.790E-01  1.542E+01  6.166E-02  1.226E+00
   1    7    7     5     2    1.0205E+01  2.7894E-01   9.9265E+00  0.000E+00  0.000E+00  0.000E+00  1.05417E+03  6.732E-01  1.519E+01  7.594E-02  1.224E+00
   1    8    7     5     3    9.9265E+00  1.9221E-01   9.7343E+00  0.000E+00  0.000E+00  0.000E+00  1.04992E+03  6.676E-01  1.497E+01  5.241E-02  1.223E+00
   1    8    6     5     4    9.7343E+00  1.3577E-01   9.5985E+00  0.000E+00  0.000E+00  0.000E+00  1.04691E+03  6.637E-01  1.482E+01  3.706E-02  1.221E+00
   1    9    6     6     1    4.4039E+01  2.8331E-01   4.3756E+01  0.000E+00  0.000E+00  0.000E+00  1.04445E+03  1.722E+00  1.200E+01  6.000E-02  1.574E+00
   1   10    7     6     2    4.3756E+01  2.8292E-01   4.3473E+01  0.000E+00  0.000E+00  0.000E+00  1.03990E+03  1.715E+00  1.200E+01  6.000E-02  1.572E+00
   1   11    7     6     3    4.3473E+01  2.8252E-01   4.3191E+01  0.000E+00  0.000E+00  0.000E+00  1.03534E+03  1.709E+00  1.200E+01  6.000E-02  1.570E+00
   1   12    7     6     4    4.3191E+01  2.8212E-01   4.2909E+01  0.000E+00  0.000E+00  0.000E+00  1.03079E+03  1.702E+00  1.200E+01  6.000E-02  1.567E+00
   1   13    7     6     5    4.2909E+01  1.0841E-02   4.2898E+01  0.000E+00  0.000E+00  0.000E+00  1.02761E+03  1.699E+00  1.200E+01  2.400E-02  1.506E-01
   1   14    9     7     1    1.5000E+02  1.3362E+00   1.4866E+02  0.000E+00  0.000E+00  0.000E+00  1.03987E+03  2.288E+00  5.529E+01  5.593E-01  7.963E-01
   1   13    8     7     2    1.4866E+02  1.8214E+00   1.4684E+02  0.000E+00  0.000E+00  0.000E+00  1.03478E+03  2.279E+00  5.526E+01  6.148E-01  9.876E-01
   1   13    7     7     3    1.4684E+02  1.4152E+00   1.4543E+02  0.000E+00  0.000E+00  0.000E+00  1.02969E+03  2.271E+00  5.522E+01  5.585E-01  8.447E-01
   1   13    6     8     1    1.8832E+02  9.2525E-01   1.8740E+02  0.000E+00  0.000E+00  0.000E+00  1.02494E+03  3.068E+00  4.448E+01  4.533E-01  6.804E-01
   1   13    5     8     2    1.8740E+02  1.4484E-01   1.8725E+02  0.000E+00  0.000E+00  0.000E+00  1.01869E+03  3.064E+00  4.443E+01  4.528E-01  1.066E-01
   1   13    4     8     3    1.8725E+02 -2.6516E+00   1.8991E+02  0.000E+00  0.000E+00  0.000E+00  1.01245E+03  3.072E+00  4.454E+01  4.539E+00 -1.947E-01
   1   13    3     8     4    1.8991E+02 -3.7654E+00   1.9367E+02  0.000E+00  0.000E+00  0.000E+00  1.00622E+03  3.091E+00  4.483E+01  4.568E+00 -2.748E-01
   1   13    2     8     5    1.9367E+02 -2.8552E+00   1.9653E+02  0.000E+00  0.000E+00  0.000E+00  9.99986E+02  3.111E+00  4.511E+01  4.597E+00 -2.070E-01
   1   13    1     8     6    1.9653E+02 -2.1323E+00   1.9866E+02  0.000E+00  0.000E+00  0.000E+00  9.95001E+02  3.126E+00  4.533E+01  2.771E+00 -2.565E-01
   1    8    6     9     1    2.2291E+01  0.0000E+00   2.2291E+01  0.000E+00  0.000E+00  0.000E+00  1.08237E+03  3.623E+00  4.000E+00  0.000E+00  2.208E+00
   1    8    5     9     2    2.2291E+01  0.0000E+00   2.2291E+01  0.000E+00  0.000E+00  0.000E+00  1.08187E+03  3.623E+00  4.000E+00  0.000E+00  2.208E+00



 UBDSV3 SAVING "           GW ET" ON UNIT  61 AT TIME STEP  5, STRESS PERIOD   7
 UBDSV3 SAVING "    UZF RECHARGE" ON UNIT  61 AT TIME STEP  5, STRESS PERIOD   7
 UBDSV3 SAVING " SURFACE LEAKAGE" ON UNIT  61 AT TIME STEP  5, STRESS PERIOD   7
 UBDSV3 SAVING "       HORT+DUNN" ON UNIT  61 AT TIME STEP  5, STRESS PERIOD   7
 UBDSV3 SAVING "  STORAGE CHANGE" ON UNIT  61 AT TIME STEP  5, STRESS PERIOD   7


UNSATURATED ZONE PACKAGE VOLUMETRIC BUDGET FOR  TIME STEP     5 STRESS PERIOD    7
  ------------------------------------------------------------------------------



     CUMULATIVE VOLUMES      L**3       RATES FOR THIS TIME STEP      L**3/T
     ------------------                 ------------------------

           IN:                                      IN:
           ---                                      ---
        INFILTRATION =    97626364.7507          INFILTRATION =          26.6986

          OUT:                                     OUT:
          ----                                     ----
              UZF ET =    78004981.0210                UZF ET =          26.6075
        UZF RECHARGE =       73224.0000          UZF RECHARGE =       0.0000E+00

            IN - OUT =    19548159.7297              IN - OUT =       9.1094E-02

          STORAGE:                                 STORAGE:
          --------                                 --------
      STORAGE CHANGE =    19548158.8738        STORAGE CHANGE =       9.1093E-02

 PERCENT DISCREPANCY IS DIFFERENCE BETWEEN IN-OUT MINUS CHANGE IN STORAGE
 DIVIDED BY THE AVERAGE OF IN AND OUT TIMES 100

 PERCENT DISCREPANCY =           0.00     PERCENT DISCREPANCY =           0.00






 

            AG WELLS      PERIOD    7   STEP   5
 AG WELL      1   LAYER   1   ROW     6   COL     4   RATE     0.00000    
 AG WELL      2   LAYER   1   ROW     6   COL     5   RATE     0.00000    
 AG WELL      3   LAYER   1   ROW     7   COL     4   RATE     0.00000    
 AG WELL      4   LAYER   1   ROW     7   COL     5   RATE     0.00000    
 AG WELL      5   LAYER   1   ROW     8   COL     4   RATE     0.00000    
 AG WELL      6   LAYER   1   ROW     8   COL     5   RATE     0.00000    
 
 

   DIVERSION SEGMENTS     PERIOD    7   STEP   5
 SEGMENT      9   RATE     22.2907    
 
 

        SW IRRIGATION     PERIOD    7   STEP   5
 SEGMENT      9   ROW     6   COL     4   RATE     3.71518    
 SEGMENT      9   ROW     6   COL     5   RATE     3.71518    
 SEGMENT      9   ROW     7   COL     4   RATE     3.71518    
 SEGMENT      9   ROW     7   COL     5   RATE     3.71518    
 SEGMENT      9   ROW     8   COL     4   RATE     3.71518    
 SEGMENT      9   ROW     8   COL     5   RATE     3.71518    
 
 

        GW IRRIGATION     PERIOD    7   STEP   5
 AG WELL      1   ROW     6   COL     4   RATE     0.00000    
 AG WELL      2   ROW     6   COL     5   RATE     0.00000    
 AG WELL      3   ROW     7   COL     4   RATE     0.00000    
 AG WELL      4   ROW     7   COL     5   RATE     0.00000    
 AG WELL      5   ROW     8   COL     4   RATE     0.00000    
 AG WELL      6   ROW     8   COL     5   RATE     0.00000    
 
1
  VOLUMETRIC BUDGET FOR ENTIRE MODEL AT END OF TIME STEP    5, STRESS PERIOD   7
  ------------------------------------------------------------------------------

     CUMULATIVE VOLUMES      L**3       RATES FOR THIS TIME STEP      L**3/T
     ------------------                 ------------------------

           IN:                                      IN:
           ---                                      ---
               AG WELLS  =           0.0000                 AG WELLS  =           0.0000
      DIVERSION SEGMENTS =    37661808.0000        DIVERSION SEGMENTS =          22.2907
           GW IRRIGATION =           0.0000             GW IRRIGATION =           0.0000
           SW IRRIGATION =           0.0000             SW IRRIGATION =           0.0000
        SYSTEM LOSSES GW =           0.0000          SYSTEM LOSSES GW =           0.0000
        SYSTEM LOSSES SW =           0.0000          SYSTEM LOSSES SW =           0.0000

                TOTAL IN =    37661808.0000                  TOTAL IN =          22.2907

          OUT:                                     OUT:
          ----                                     ----
               AG WELLS  =           0.0000                 AG WELLS  =           0.0000
      DIVERSION SEGMENTS =           0.0000        DIVERSION SEGMENTS =           0.0000
           GW IRRIGATION =           0.0000             GW IRRIGATION =           0.0000
           SW IRRIGATION =    37662568.0000             SW IRRIGATION =          22.2911
        SYSTEM LOSSES GW =           0.0000          SYSTEM LOSSES GW =           0.0000
        SYSTEM LOSSES SW =           0.0000          SYSTEM LOSSES SW =           0.0000

               TOTAL OUT =    37662568.0000                 TOTAL OUT =          22.2911

                IN - OUT =        -760.0000                  IN - OUT =      -4.4441E-04

     PERCENT DISCREPANCY =          -0.00         PERCENT DISCREPANCY =          -0.00



1
  VOLUMETRIC BUDGET FOR ENTIRE MODEL AT END OF TIME STEP    5, STRESS PERIOD   7
  ------------------------------------------------------------------------------

     CUMULATIVE VOLUMES      L**3       RATES FOR THIS TIME STEP      L**3/T
     ------------------                 ------------------------

           IN:                                      IN:
           ---                                      ---
             STORAGE     =    10208658.0000               STORAGE     =           1.5370
       CONSTANT HEAD     =           0.0000         CONSTANT HEAD     =           0.0000
     HEAD DEP BOUNDS     =     3907344.7500       HEAD DEP BOUNDS     =           0.2858
      STREAM LEAKAGE     =   166692032.0000        STREAM LEAKAGE     =          12.7047
        UZF RECHARGE     =       73223.9531          UZF RECHARGE     =           0.0000
               GW ET     =           0.0000                 GW ET     =           0.0000
     SURFACE LEAKAGE     =           0.0000       SURFACE LEAKAGE     =           0.0000
           AG WELLS      =           0.0000             AG WELLS      =           0.0000

                TOTAL IN =   180881248.0000                  TOTAL IN =          14.5275

          OUT:                                     OUT:
          ----                                     ----
             STORAGE     =    32870554.0000               STORAGE     =           2.2961
       CONSTANT HEAD     =           0.0000         CONSTANT HEAD     =           0.0000
     HEAD DEP BOUNDS     =     3988011.0000       HEAD DEP BOUNDS     =           0.2953
      STREAM LEAKAGE     =   142981808.0000        STREAM LEAKAGE     =          11.4044
        UZF RECHARGE     =           0.0000          UZF RECHARGE     =           0.0000
               GW ET     =     1043465.6875                 GW ET     =           0.5310
     SURFACE LEAKAGE     =           0.0000       SURFACE LEAKAGE     =           0.0000
           AG WELLS      =           0.0000             AG WELLS      =           0.0000

               TOTAL OUT =   180883840.0000                 TOTAL OUT =          14.5268

                IN - OUT =       -2592.0000                  IN - OUT =       7.1239E-04

     PERCENT DISCREPANCY =          -0.00         PERCENT DISCREPANCY =           0.00






         TIME SUMMARY AT END OF TIME STEP    5 IN STRESS PERIOD    7
                    SECONDS     MINUTES      HOURS       DAYS        YEARS
                    -----------------------------------------------------------
   TIME STEP LENGTH  87667.      1461.1      24.352      1.0147     2.77799E-03
 STRESS PERIOD TIME 4.38333E+05  7305.6      121.76      5.0733     1.38899E-02
         TOTAL TIME 1.36747E+07 2.27912E+05  3798.5      158.27     0.43333    
1
 
 SOLVING FOR HEAD 
                                                   Max.-Head-Change                         Max.-Flux-Residual
  Residual-Control   Outer-Iter.   Inner-Iter.     Column Row Layer    Maximum-Head-Change  Column Row Layer    Maximum-Flux-Residual          L2-NORM 
          0                 1           2             2    2     1       0.4974811340E-02       2    2    1         0.2590921013E+00      0.5762524480E+00
          0                 2           2             2   13     1      -0.5729897187E-02       4   13    1        -0.3575963844E+00      0.6196601763E+00
          0                 3           2             2   13     1      -0.1260769800E-02       4   13    1        -0.7660047853E-01      0.1342197606E+00
          0                 4           2             2   13     1      -0.5351255856E-03       4   13    1        -0.3290757525E-01      0.5724696960E-01
          0                 5           1             2   13     1      -0.3947722397E-04       4   13    1        -0.2350012077E-02      0.4160721374E-02

    ------------------------------------------------
       NWT REQUIRED            5 OUTER ITERATIONS 
       AND A TOTAL OF          9 INNER ITERATIONS.
    ------------------------------------------------

 NO OUTPUT CONTROL FOR STRESS PERIOD    7   TIME STEP    6
 
 SOLVING FOR HEAD 
                                                   Max.-Head-Change                         Max.-Flux-Residual
  Residual-Control   Outer-Iter.   Inner-Iter.     Column Row Layer    Maximum-Head-Change  Column Row Layer    Maximum-Flux-Residual          L2-NORM 
          0                 1           2             2    2     1       0.4956079376E-02       2    2    1         0.2581089041E+00      0.6158131449E+00
          0                 2           2             2   13     1      -0.5774335425E-02       4   13    1        -0.3638229011E+00      0.6278392190E+00
          0                 3           2             2   13     1      -0.1270830586E-02       4   13    1        -0.7692871349E-01      0.1349967170E+00
          0                 4           2             2   13     1      -0.5377871657E-03       4   13    1        -0.3307940395E-01      0.5753543854E-01
          0                 5           1             2   13     1      -0.3688038283E-04       4   13    1        -0.2183943559E-02      0.3877591889E-02

    ------------------------------------------------
       NWT REQUIRED            5 OUTER ITERATIONS 
       AND A TOTAL OF          9 INNER ITERATIONS.
    ------------------------------------------------

 NO OUTPUT CONTROL FOR STRESS PERIOD    7   TIME STEP    7
 
 SOLVING FOR HEAD 
                                                   Max.-Head-Change                         Max.-Flux-Residual
  Residual-Control   Outer-Iter.   Inner-Iter.     Column Row Layer    Maximum-Head-Change  Column Row Layer    Maximum-Flux-Residual          L2-NORM 
          0                 1           2             2    2     1       0.4937574107E-02       4   13    1         0.2775682298E+00      0.6564025563E+00
          0                 2           2             2   13     1      -0.5815833443E-02       4   13    1        -0.3688015009E+00      0.6346460103E+00
          0                 3           2             2   13     1      -0.1281017514E-02       4   13    1        -0.7732427465E-01      0.1358502427E+00
          0                 4           2             2   13     1      -0.5403477893E-03       4   13    1        -0.3323380187E-01      0.5780088166E-01
          0                 5           1             2   13     1      -0.3420703012E-04       4   13    1        -0.2016743651E-02      0.3589065517E-02

    ------------------------------------------------
       NWT REQUIRED            5 OUTER ITERATIONS 
       AND A TOTAL OF          9 INNER ITERATIONS.
    ------------------------------------------------

 NO OUTPUT CONTROL FOR STRESS PERIOD    7   TIME STEP    8
 
 SOLVING FOR HEAD 
                                                   Max.-Head-Change                         Max.-Flux-Residual
  Residual-Control   Outer-Iter.   Inner-Iter.     Column Row Layer    Maximum-Head-Change  Column Row Layer    Maximum-Flux-Residual          L2-NORM 
          0                 1           2             4   13     1       0.4937475682E-02       4   13    1         0.3179140677E+00      0.6945126726E+00
          0                 2           2             2   13     1      -0.5854380127E-02       4   13    1        -0.3727719527E+00      0.6403116165E+00
          0                 3           2             2   13     1      -0.1294147196E-02       4   13    1        -0.7777603140E-01      0.1368551067E+00
          0                 4           2             2   13     1      -0.5397305294E-03       4   13    1        -0.3337275458E-01      0.5795066748E-01
          0                 5           1             2   13     1      -0.3174550462E-04       4   13    1        -0.1849979173E-02      0.3307310963E-02

    ------------------------------------------------
       NWT REQUIRED            5 OUTER ITERATIONS 
       AND A TOTAL OF          9 INNER ITERATIONS.
    ------------------------------------------------

 NO OUTPUT CONTROL FOR STRESS PERIOD    7   TIME STEP    9
 
 SOLVING FOR HEAD 
                                                   Max.-Head-Change                         Max.-Flux-Residual
  Residual-Control   Outer-Iter.   Inner-Iter.     Column Row Layer    Maximum-Head-Change  Column Row Layer    Maximum-Flux-Residual          L2-NORM 
          0                 1           2             4   13     1       0.5444884568E-02       4   13    1         0.3505976558E+00      0.7287990032E+00
          0                 2           2             2   13     1      -0.5889995979E-02       4   13    1        -0.3759269557E+00      0.6450270759E+00
          0                 3           2             2   13     1      -0.1301726978E-02       4   13    1        -0.7827502259E-01      0.1377330618E+00
          0                 4           2             2   13     1      -0.5451012405E-03       4   13    1        -0.3350014482E-01      0.5827644467E-01
          0                 5           1             2   13     1      -0.2882609322E-04       4   13    1        -0.1679739606E-02      0.3006909759E-02

    ------------------------------------------------
       NWT REQUIRED            5 OUTER ITERATIONS 
       AND A TOTAL OF          9 INNER ITERATIONS.
    ------------------------------------------------

 OUTPUT CONTROL FOR STRESS PERIOD    7   TIME STEP   10
    PRINT BUDGET
    SAVE BUDGET
 UBDSV1 SAVING "         STORAGE" ON UNIT 102 AT TIME STEP 10, STRESS PERIOD   7
 UBDSV2 SAVING "   CONSTANT HEAD" ON UNIT 102 AT TIME STEP 10, STRESS PERIOD   7
 UBDSV1 SAVING "FLOW RIGHT FACE " ON UNIT 102 AT TIME STEP 10, STRESS PERIOD   7
 UBDSV1 SAVING "FLOW FRONT FACE " ON UNIT 102 AT TIME STEP 10, STRESS PERIOD   7

  HEAD DEP BOUNDS   PERIOD    7   STEP    10
 BOUNDARY      1   LAYER   1   ROW    13   COL     1   RATE   -0.294789    
 BOUNDARY      2   LAYER   1   ROW    14   COL     9   RATE    0.285785    



 STREAM LISTING     PERIOD      7   STEP       10

 LAYER ROW COL. STREAM  RCH.  FLOW INTO     FLOW TO   FLOW OUT OF   OVRLND.     DIRECT     STREAM       STREAM     STREAM     STREAM   STREAMBED  STREAMBED
                SEG.NO.  NO.  STRM. RCH.    AQUIFER    STRM. RCH.    RUNOFF     PRECIP       ET          HEAD       DEPTH      WIDTH   CONDCTNC.   GRADIENT

   1    1    1     1     1    6.2250E+01  3.7978E-01   6.1870E+01  0.000E+00  0.000E+00  0.000E+00  1.09460E+03  1.553E+00  1.854E+01  8.342E-02  1.518E+00
   1    2    2     1     2    6.1870E+01  5.8817E-01   6.1282E+01  0.000E+00  0.000E+00  0.000E+00  1.08961E+03  1.547E+00  1.848E+01  1.294E-01  1.516E+00
   1    3    3     1     3    6.1282E+01  5.0163E-01   6.0781E+01  0.000E+00  0.000E+00  0.000E+00  1.08396E+03  1.540E+00  1.841E+01  1.105E-01  1.513E+00
   1    3    4     1     4    6.0781E+01  4.6194E-01   6.0319E+01  0.000E+00  0.000E+00  0.000E+00  1.07894E+03  1.534E+00  1.836E+01  1.019E-01  1.511E+00
   1    4    5     2     1    5.8319E+01  3.9026E-01   5.7928E+01  0.000E+00  0.000E+00  0.000E+00  1.07394E+03  2.003E+00  1.200E+01  7.800E-02  1.668E+00
   1    5    6     2     2    5.7928E+01  2.9977E-01   5.7629E+01  0.000E+00  0.000E+00  0.000E+00  1.06851E+03  1.996E+00  1.200E+01  6.000E-02  1.665E+00
   1    6    6     2     3    5.7629E+01  2.9940E-01   5.7329E+01  0.000E+00  0.000E+00  0.000E+00  1.06378E+03  1.990E+00  1.200E+01  6.000E-02  1.663E+00
   1    7    6     2     4    5.7329E+01  2.9903E-01   5.7030E+01  0.000E+00  0.000E+00  0.000E+00  1.05906E+03  1.984E+00  1.200E+01  6.000E-02  1.661E+00
   1    8    6     2     5    5.7030E+01  2.9865E-01   5.6732E+01  0.000E+00  0.000E+00  0.000E+00  1.05434E+03  1.978E+00  1.200E+01  6.000E-02  1.659E+00
   1    3    5     3     1    2.0000E+00  2.8252E-01   1.7175E+00  0.000E+00  0.000E+00  0.000E+00  1.07555E+03  1.909E+00  9.636E+00  7.227E-02  1.955E+00
   1    3    6     3     2    1.7175E+00  2.4905E-01   1.4684E+00  0.000E+00  0.000E+00  0.000E+00  1.07264E+03  1.727E+00  8.909E+00  6.682E-02  1.864E+00
   1    3    7     3     3    1.4684E+00  1.9718E-01   1.2712E+00  0.000E+00  0.000E+00  0.000E+00  1.06987E+03  1.555E+00  8.218E+00  5.547E-02  1.777E+00
   1    4    8     3     4    1.2712E+00  2.2567E-01   1.0456E+00  0.000E+00  0.000E+00  0.000E+00  1.06682E+03  1.364E+00  7.455E+00  6.709E-02  1.682E+00
   1    5    8     3     5    1.0456E+00  1.5790E-01   8.8768E-01  0.000E+00  0.000E+00  0.000E+00  1.06362E+03  1.164E+00  6.655E+00  4.991E-02  1.582E+00
   1    6    8     3     6    8.8768E-01  5.5980E-02   8.3170E-01  0.000E+00  0.000E+00  0.000E+00  1.06158E+03  1.036E+00  6.145E+00  1.844E-02  1.518E+00
   1    5   10     4     1    1.0000E+01  9.0919E-02   9.9091E+00  0.000E+00  0.000E+00  0.000E+00  1.07836E+03  6.368E-01  1.000E+01  2.500E-02  1.212E+00
   1    5    9     4     2    9.9091E+00  1.8158E-01   9.7275E+00  0.000E+00  0.000E+00  0.000E+00  1.07154E+03  6.315E-01  1.000E+01  5.000E-02  1.211E+00
   1    6    8     4     3    9.7275E+00  1.2689E-01   9.6006E+00  0.000E+00  0.000E+00  0.000E+00  1.06381E+03  6.256E-01  1.000E+01  3.500E-02  1.209E+00
   1    6    8     5     1    1.0432E+01  2.2686E-01   1.0205E+01  0.000E+00  0.000E+00  0.000E+00  1.05868E+03  6.790E-01  1.542E+01  6.166E-02  1.226E+00
   1    7    7     5     2    1.0205E+01  2.7894E-01   9.9265E+00  0.000E+00  0.000E+00  0.000E+00  1.05417E+03  6.732E-01  1.519E+01  7.594E-02  1.224E+00
   1    8    7     5     3    9.9265E+00  1.9221E-01   9.7343E+00  0.000E+00  0.000E+00  0.000E+00  1.04992E+03  6.676E-01  1.497E+01  5.241E-02  1.223E+00
   1    8    6     5     4    9.7343E+00  1.3577E-01   9.5985E+00  0.000E+00  0.000E+00  0.000E+00  1.04691E+03  6.637E-01  1.482E+01  3.706E-02  1.221E+00
   1    9    6     6     1    4.4042E+01  2.8323E-01   4.3759E+01  0.000E+00  0.000E+00  0.000E+00  1.04445E+03  1.720E+00  1.200E+01  6.000E-02  1.573E+00
   1   10    7     6     2    4.3759E+01  2.8283E-01   4.3476E+01  0.000E+00  0.000E+00  0.000E+00  1.03990E+03  1.714E+00  1.200E+01  6.000E-02  1.571E+00
   1   11    7     6     3    4.3476E+01  2.8243E-01   4.3194E+01  0.000E+00  0.000E+00  0.000E+00  1.03534E+03  1.707E+00  1.200E+01  6.000E-02  1.569E+00
   1   12    7     6     4    4.3194E+01  2.8204E-01   4.2912E+01  0.000E+00  0.000E+00  0.000E+00  1.03079E+03  1.701E+00  1.200E+01  6.000E-02  1.567E+00
   1   13    7     6     5    4.2912E+01  1.0760E-02   4.2901E+01  0.000E+00  0.000E+00  0.000E+00  1.02761E+03  1.697E+00  1.200E+01  2.400E-02  1.494E-01
   1   14    9     7     1    1.5000E+02  1.3362E+00   1.4866E+02  0.000E+00  0.000E+00  0.000E+00  1.03987E+03  2.288E+00  5.529E+01  5.593E-01  7.963E-01
   1   13    8     7     2    1.4866E+02  1.8208E+00   1.4684E+02  0.000E+00  0.000E+00  0.000E+00  1.03478E+03  2.279E+00  5.526E+01  6.148E-01  9.873E-01
   1   13    7     7     3    1.4684E+02  1.4141E+00   1.4543E+02  0.000E+00  0.000E+00  0.000E+00  1.02969E+03  2.271E+00  5.522E+01  5.585E-01  8.440E-01
   1   13    6     8     1    1.8833E+02  9.2582E-01   1.8740E+02  0.000E+00  0.000E+00  0.000E+00  1.02494E+03  3.067E+00  4.447E+01  4.532E-01  6.809E-01
   1   13    5     8     2    1.8740E+02  1.4575E-01   1.8726E+02  0.000E+00  0.000E+00  0.000E+00  1.01869E+03  3.064E+00  4.443E+01  4.527E-01  1.073E-01
   1   13    4     8     3    1.8726E+02 -2.5830E+00   1.8984E+02  0.000E+00  0.000E+00  0.000E+00  1.01245E+03  3.071E+00  4.453E+01  4.538E+00 -1.897E-01
   1   13    3     8     4    1.8984E+02 -3.6922E+00   1.9353E+02  0.000E+00  0.000E+00  0.000E+00  1.00622E+03  3.090E+00  4.481E+01  4.566E+00 -2.695E-01
   1   13    2     8     5    1.9353E+02 -2.7583E+00   1.9629E+02  0.000E+00  0.000E+00  0.000E+00  9.99985E+02  3.110E+00  4.509E+01  4.595E+00 -2.001E-01
   1   13    1     8     6    1.9629E+02 -2.1006E+00   1.9839E+02  0.000E+00  0.000E+00  0.000E+00  9.94999E+02  3.124E+00  4.530E+01  2.770E+00 -2.528E-01
   1    8    6     9     1    2.2288E+01  0.0000E+00   2.2288E+01  0.000E+00  0.000E+00  0.000E+00  1.08238E+03  3.629E+00  4.000E+00  0.000E+00  2.210E+00
   1    8    5     9     2    2.2288E+01  0.0000E+00   2.2288E+01  0.000E+00  0.000E+00  0.000E+00  1.08188E+03  3.629E+00  4.000E+00  0.000E+00  2.210E+00



 UBDSV3 SAVING "           GW ET" ON UNIT  61 AT TIME STEP 10, STRESS PERIOD   7
 UBDSV3 SAVING "    UZF RECHARGE" ON UNIT  61 AT TIME STEP 10, STRESS PERIOD   7
 UBDSV3 SAVING " SURFACE LEAKAGE" ON UNIT  61 AT TIME STEP 10, STRESS PERIOD   7
 UBDSV3 SAVING "       HORT+DUNN" ON UNIT  61 AT TIME STEP 10, STRESS PERIOD   7
 UBDSV3 SAVING "  STORAGE CHANGE" ON UNIT  61 AT TIME STEP 10, STRESS PERIOD   7


UNSATURATED ZONE PACKAGE VOLUMETRIC BUDGET FOR  TIME STEP    10 STRESS PERIOD    7
  ------------------------------------------------------------------------------



     CUMULATIVE VOLUMES      L**3       RATES FOR THIS TIME STEP      L**3/T
     ------------------                 ------------------------

           IN:                                      IN:
           ---                                      ---
        INFILTRATION =   109328469.5662          INFILTRATION =          26.6958

          OUT:                                     OUT:
          ----                                     ----
              UZF ET =    89667938.2114                UZF ET =          26.6075
        UZF RECHARGE =       73224.0000          UZF RECHARGE =       0.0000E+00

            IN - OUT =    19587307.3547              IN - OUT =       8.8308E-02

          STORAGE:                                 STORAGE:
          --------                                 --------
      STORAGE CHANGE =    19587306.5275        STORAGE CHANGE =       8.8308E-02

 PERCENT DISCREPANCY IS DIFFERENCE BETWEEN IN-OUT MINUS CHANGE IN STORAGE
 DIVIDED BY THE AVERAGE OF IN AND OUT TIMES 100

 PERCENT DISCREPANCY =           0.00     PERCENT DISCREPANCY =           0.00






 

            AG WELLS      PERIOD    7   STEP  10
 AG WELL      1   LAYER   1   ROW     6   COL     4   RATE     0.00000    
 AG WELL      2   LAYER   1   ROW     6   COL     5   RATE     0.00000    
 AG WELL      3   LAYER   1   ROW     7   COL     4   RATE     0.00000    
 AG WELL      4   LAYER   1   ROW     7   COL     5   RATE     0.00000    
 AG WELL      5   LAYER   1   ROW     8   COL     4   RATE     0.00000    
 AG WELL      6   LAYER   1   ROW     8   COL     5   RATE     0.00000    
 
 

   DIVERSION SEGMENTS     PERIOD    7   STEP  10
 SEGMENT      9   RATE     22.2879    
 
 

        SW IRRIGATION     PERIOD    7   STEP  10
 SEGMENT      9   ROW     6   COL     4   RATE     3.71472    
 SEGMENT      9   ROW     6   COL     5   RATE     3.71472    
 SEGMENT      9   ROW     7   COL     4   RATE     3.71472    
 SEGMENT      9   ROW     7   COL     5   RATE     3.71472    
 SEGMENT      9   ROW     8   COL     4   RATE     3.71472    
 SEGMENT      9   ROW     8   COL     5   RATE     3.71472    
 
 

        GW IRRIGATION     PERIOD    7   STEP  10
 AG WELL      1   ROW     6   COL     4   RATE     0.00000    
 AG WELL      2   ROW     6   COL     5   RATE     0.00000    
 AG WELL      3   ROW     7   COL     4   RATE     0.00000    
 AG WELL      4   ROW     7   COL     5   RATE     0.00000    
 AG WELL      5   ROW     8   COL     4   RATE     0.00000    
 AG WELL      6   ROW     8   COL     5   RATE     0.00000    
 
1
  VOLUMETRIC BUDGET FOR ENTIRE MODEL AT END OF TIME STEP   10, STRESS PERIOD   7
  ------------------------------------------------------------------------------

     CUMULATIVE VOLUMES      L**3       RATES FOR THIS TIME STEP      L**3/T
     ------------------                 ------------------------

           IN:                                      IN:
           ---                                      ---
               AG WELLS  =           0.0000                 AG WELLS  =           0.0000
      DIVERSION SEGMENTS =    47431768.0000        DIVERSION SEGMENTS =          22.2879
           GW IRRIGATION =           0.0000             GW IRRIGATION =           0.0000
           SW IRRIGATION =           0.0000             SW IRRIGATION =           0.0000
        SYSTEM LOSSES GW =           0.0000          SYSTEM LOSSES GW =           0.0000
        SYSTEM LOSSES SW =           0.0000          SYSTEM LOSSES SW =           0.0000

                TOTAL IN =    47431768.0000                  TOTAL IN =          22.2879

          OUT:                                     OUT:
          ----                                     ----
               AG WELLS  =           0.0000                 AG WELLS  =           0.0000
      DIVERSION SEGMENTS =           0.0000        DIVERSION SEGMENTS =           0.0000
           GW IRRIGATION =           0.0000             GW IRRIGATION =           0.0000
           SW IRRIGATION =    47432716.0000             SW IRRIGATION =          22.2883
        SYSTEM LOSSES GW =           0.0000          SYSTEM LOSSES GW =           0.0000
        SYSTEM LOSSES SW =           0.0000          SYSTEM LOSSES SW =           0.0000

               TOTAL OUT =    47432716.0000                 TOTAL OUT =          22.2883

                IN - OUT =        -948.0000                  IN - OUT =      -4.4441E-04

     PERCENT DISCREPANCY =          -0.00         PERCENT DISCREPANCY =          -0.00



1
  VOLUMETRIC BUDGET FOR ENTIRE MODEL AT END OF TIME STEP   10, STRESS PERIOD   7
  ------------------------------------------------------------------------------

     CUMULATIVE VOLUMES      L**3       RATES FOR THIS TIME STEP      L**3/T
     ------------------                 ------------------------

           IN:                                      IN:
           ---                                      ---
             STORAGE     =    10719306.0000               STORAGE     =           0.9774
       CONSTANT HEAD     =           0.0000         CONSTANT HEAD     =           0.0000
     HEAD DEP BOUNDS     =     4032613.5000       HEAD DEP BOUNDS     =           0.2858
      STREAM LEAKAGE     =   172260768.0000        STREAM LEAKAGE     =          12.7041
        UZF RECHARGE     =       73223.9531          UZF RECHARGE     =           0.0000
               GW ET     =           0.0000                 GW ET     =           0.0000
     SURFACE LEAKAGE     =           0.0000       SURFACE LEAKAGE     =           0.0000
           AG WELLS      =           0.0000             AG WELLS      =           0.0000

                TOTAL IN =   187085904.0000                  TOTAL IN =          13.9673

          OUT:                                     OUT:
          ----                                     ----
             STORAGE     =    33862764.0000               STORAGE     =           2.2459
       CONSTANT HEAD     =           0.0000         CONSTANT HEAD     =           0.0000
     HEAD DEP BOUNDS     =     4117309.0000       HEAD DEP BOUNDS     =           0.2948
      STREAM LEAKAGE     =   147903136.0000        STREAM LEAKAGE     =          11.1341
        UZF RECHARGE     =           0.0000          UZF RECHARGE     =           0.0000
               GW ET     =     1205047.5000                 GW ET     =           0.2920
     SURFACE LEAKAGE     =           0.0000       SURFACE LEAKAGE     =           0.0000
           AG WELLS      =           0.0000             AG WELLS      =           0.0000

               TOTAL OUT =   187088240.0000                 TOTAL OUT =          13.9668

                IN - OUT =       -2336.0000                  IN - OUT =       4.8351E-04

     PERCENT DISCREPANCY =          -0.00         PERCENT DISCREPANCY =           0.00






         TIME SUMMARY AT END OF TIME STEP   10 IN STRESS PERIOD    7
                    SECONDS     MINUTES      HOURS       DAYS        YEARS
                    -----------------------------------------------------------
   TIME STEP LENGTH  87667.      1461.1      24.352      1.0147     2.77799E-03
 STRESS PERIOD TIME 8.76667E+05  14611.      243.52      10.147     2.77799E-02
         TOTAL TIME 1.41131E+07 2.35218E+05  3920.3      163.35     0.44722    
1
 
 SOLVING FOR HEAD 
                                                   Max.-Head-Change                         Max.-Flux-Residual
  Residual-Control   Outer-Iter.   Inner-Iter.     Column Row Layer    Maximum-Head-Change  Column Row Layer    Maximum-Flux-Residual          L2-NORM 
          0                 1           2             4   13     1       0.5856244410E-02       4   13    1         0.3770866247E+00      0.7589997356E+00
          0                 2           2             2   13     1      -0.5922879869E-02       4   13    1        -0.3784234502E+00      0.6489581568E+00
          0                 3           2             2   13     1      -0.1312250747E-02       4   13    1        -0.7881426706E-01      0.1387459453E+00
          0                 4           2             2   13     1      -0.5473300485E-03       4   13    1        -0.3361669841E-01      0.5849097251E-01
          0                 5           1             2   13     1      -0.2608993360E-04       2   13    1        -0.1513983948E-02      0.2713630485E-02

    ------------------------------------------------
       NWT REQUIRED            5 OUTER ITERATIONS 
       AND A TOTAL OF          9 INNER ITERATIONS.
    ------------------------------------------------

 NO OUTPUT CONTROL FOR STRESS PERIOD    7   TIME STEP   11
 
 SOLVING FOR HEAD 
                                                   Max.-Head-Change                         Max.-Flux-Residual
  Residual-Control   Outer-Iter.   Inner-Iter.     Column Row Layer    Maximum-Head-Change  Column Row Layer    Maximum-Flux-Residual          L2-NORM 
          0                 1           2             4   13     1       0.6189963402E-02       4   13    1         0.3985689483E+00      0.7852878480E+00
          0                 2           2             2   13     1      -0.5953070711E-02       4   13    1        -0.3803898660E+00      0.6522347137E+00
          0                 3           2             2   13     1      -0.1322911688E-02       4   13    1        -0.7938420406E-01      0.1397970292E+00
          0                 4           2             2   13     1      -0.5494507582E-03       4   13    1        -0.3372517720E-01      0.5869241510E-01
          0                 5           1             2   13     1      -0.2415384130E-04       2   13    1        -0.1401644046E-02      0.2505690671E-02

    ------------------------------------------------
       NWT REQUIRED            5 OUTER ITERATIONS 
       AND A TOTAL OF          9 INNER ITERATIONS.
    ------------------------------------------------

 NO OUTPUT CONTROL FOR STRESS PERIOD    7   TIME STEP   12
 
 SOLVING FOR HEAD 
                                                   Max.-Head-Change                         Max.-Flux-Residual
  Residual-Control   Outer-Iter.   Inner-Iter.     Column Row Layer    Maximum-Head-Change  Column Row Layer    Maximum-Flux-Residual          L2-NORM 
          0                 1           2             4   13     1       0.6461277372E-02       4   13    1         0.4160277546E+00      0.8080707985E+00
          0                 2           2             2   13     1      -0.5981522901E-02       4   13    1        -0.3819769036E+00      0.6550526725E+00
          0                 3           2             2   13     1      -0.1335639516E-02       4   13    1        -0.8010076296E-01      0.1410892899E+00
          0                 4           2             2   13     1      -0.5510822352E-03       4   13    1        -0.3380004640E-01      0.5883852886E-01
          0                 5           1             2   13     1      -0.2461145787E-04       2   13    1        -0.1428187939E-02      0.2553728293E-02

    ------------------------------------------------
       NWT REQUIRED            5 OUTER ITERATIONS 
       AND A TOTAL OF          9 INNER ITERATIONS.
    ------------------------------------------------

 NO OUTPUT CONTROL FOR STRESS PERIOD    7   TIME STEP   13
 
 SOLVING FOR HEAD 
                                                   Max.-Head-Change                         Max.-Flux-Residual
  Residual-Control   Outer-Iter.   Inner-Iter.     Column Row Layer    Maximum-Head-Change  Column Row Layer    Maximum-Flux-Residual          L2-NORM 
          0                 1           2             4   13     1       0.6682961148E-02       4   13    1         0.4302871610E+00      0.8278515602E+00
          0                 2           2             2   13     1      -0.6010538206E-02       4   13    1        -0.3834060057E+00      0.6577396608E+00
          0                 3           2             2   13     1      -0.1355836978E-02       4   13    1        -0.8129006233E-01      0.1431912511E+00
          0                 4           2             2   13     1      -0.5512064979E-03       4   13    1        -0.3377943056E-01      0.5882285970E-01
          0                 5           1             2   13     1      -0.2634145965E-04       2   13    1        -0.1528558811E-02      0.2738159308E-02

    ------------------------------------------------
       NWT REQUIRED            5 OUTER ITERATIONS 
       AND A TOTAL OF          9 INNER ITERATIONS.
    ------------------------------------------------

 NO OUTPUT CONTROL FOR STRESS PERIOD    7   TIME STEP   14
 
 SOLVING FOR HEAD 
                                                   Max.-Head-Change                         Max.-Flux-Residual
  Residual-Control   Outer-Iter.   Inner-Iter.     Column Row Layer    Maximum-Head-Change  Column Row Layer    Maximum-Flux-Residual          L2-NORM 
          0                 1           2             4   13     1       0.6866658581E-02       4   13    1         0.4420986782E+00      0.8451728045E+00
          0                 2           2             2   13     1      -0.6038915684E-02       4   13    1        -0.3846641000E+00      0.6602250649E+00
          0                 3           2             2   13     1      -0.1393970811E-02       4   13    1        -0.8359092304E-01      0.1472198362E+00
          0                 4           2             2   13     1      -0.5453047052E-03       4   13    1        -0.3338668984E-01      0.5816094246E-01
          0                 5           1             2   13     1      -0.2925857858E-04       4   13    1        -0.1701950086E-02      0.3048702927E-02

    ------------------------------------------------
       NWT REQUIRED            5 OUTER ITERATIONS 
       AND A TOTAL OF          9 INNER ITERATIONS.
    ------------------------------------------------

 OUTPUT CONTROL FOR STRESS PERIOD    7   TIME STEP   15
    PRINT BUDGET
    SAVE BUDGET
 UBDSV1 SAVING "         STORAGE" ON UNIT 102 AT TIME STEP 15, STRESS PERIOD   7
 UBDSV2 SAVING "   CONSTANT HEAD" ON UNIT 102 AT TIME STEP 15, STRESS PERIOD   7
 UBDSV1 SAVING "FLOW RIGHT FACE " ON UNIT 102 AT TIME STEP 15, STRESS PERIOD   7
 UBDSV1 SAVING "FLOW FRONT FACE " ON UNIT 102 AT TIME STEP 15, STRESS PERIOD   7

  HEAD DEP BOUNDS   PERIOD    7   STEP    15
 BOUNDARY      1   LAYER   1   ROW    13   COL     1   RATE   -0.294391    
 BOUNDARY      2   LAYER   1   ROW    14   COL     9   RATE    0.285785    



 STREAM LISTING     PERIOD      7   STEP       15

 LAYER ROW COL. STREAM  RCH.  FLOW INTO     FLOW TO   FLOW OUT OF   OVRLND.     DIRECT     STREAM       STREAM     STREAM     STREAM   STREAMBED  STREAMBED
                SEG.NO.  NO.  STRM. RCH.    AQUIFER    STRM. RCH.    RUNOFF     PRECIP       ET          HEAD       DEPTH      WIDTH   CONDCTNC.   GRADIENT

   1    1    1     1     1    6.2250E+01  3.7978E-01   6.1870E+01  0.000E+00  0.000E+00  0.000E+00  1.09460E+03  1.553E+00  1.854E+01  8.342E-02  1.518E+00
   1    2    2     1     2    6.1870E+01  5.8817E-01   6.1282E+01  0.000E+00  0.000E+00  0.000E+00  1.08961E+03  1.547E+00  1.848E+01  1.294E-01  1.516E+00
   1    3    3     1     3    6.1282E+01  5.0163E-01   6.0781E+01  0.000E+00  0.000E+00  0.000E+00  1.08396E+03  1.540E+00  1.841E+01  1.105E-01  1.513E+00
   1    3    4     1     4    6.0781E+01  4.6194E-01   6.0319E+01  0.000E+00  0.000E+00  0.000E+00  1.07894E+03  1.534E+00  1.836E+01  1.019E-01  1.511E+00
   1    4    5     2     1    5.8319E+01  3.9026E-01   5.7928E+01  0.000E+00  0.000E+00  0.000E+00  1.07394E+03  2.003E+00  1.200E+01  7.800E-02  1.668E+00
   1    5    6     2     2    5.7928E+01  2.9977E-01   5.7629E+01  0.000E+00  0.000E+00  0.000E+00  1.06851E+03  1.996E+00  1.200E+01  6.000E-02  1.665E+00
   1    6    6     2     3    5.7629E+01  2.9940E-01   5.7329E+01  0.000E+00  0.000E+00  0.000E+00  1.06378E+03  1.990E+00  1.200E+01  6.000E-02  1.663E+00
   1    7    6     2     4    5.7329E+01  2.9903E-01   5.7030E+01  0.000E+00  0.000E+00  0.000E+00  1.05906E+03  1.984E+00  1.200E+01  6.000E-02  1.661E+00
   1    8    6     2     5    5.7030E+01  2.9865E-01   5.6732E+01  0.000E+00  0.000E+00  0.000E+00  1.05434E+03  1.978E+00  1.200E+01  6.000E-02  1.659E+00
   1    3    5     3     1    2.0000E+00  2.8252E-01   1.7175E+00  0.000E+00  0.000E+00  0.000E+00  1.07555E+03  1.909E+00  9.636E+00  7.227E-02  1.955E+00
   1    3    6     3     2    1.7175E+00  2.4905E-01   1.4684E+00  0.000E+00  0.000E+00  0.000E+00  1.07264E+03  1.727E+00  8.909E+00  6.682E-02  1.864E+00
   1    3    7     3     3    1.4684E+00  1.9718E-01   1.2712E+00  0.000E+00  0.000E+00  0.000E+00  1.06987E+03  1.555E+00  8.218E+00  5.547E-02  1.777E+00
   1    4    8     3     4    1.2712E+00  2.2567E-01   1.0456E+00  0.000E+00  0.000E+00  0.000E+00  1.06682E+03  1.364E+00  7.455E+00  6.709E-02  1.682E+00
   1    5    8     3     5    1.0456E+00  1.5790E-01   8.8768E-01  0.000E+00  0.000E+00  0.000E+00  1.06362E+03  1.164E+00  6.655E+00  4.991E-02  1.582E+00
   1    6    8     3     6    8.8768E-01  5.5980E-02   8.3170E-01  0.000E+00  0.000E+00  0.000E+00  1.06158E+03  1.036E+00  6.145E+00  1.844E-02  1.518E+00
   1    5   10     4     1    1.0000E+01  9.0919E-02   9.9091E+00  0.000E+00  0.000E+00  0.000E+00  1.07836E+03  6.368E-01  1.000E+01  2.500E-02  1.212E+00
   1    5    9     4     2    9.9091E+00  1.8158E-01   9.7275E+00  0.000E+00  0.000E+00  0.000E+00  1.07154E+03  6.315E-01  1.000E+01  5.000E-02  1.211E+00
   1    6    8     4     3    9.7275E+00  1.2689E-01   9.6006E+00  0.000E+00  0.000E+00  0.000E+00  1.06381E+03  6.256E-01  1.000E+01  3.500E-02  1.209E+00
   1    6    8     5     1    1.0432E+01  2.2686E-01   1.0205E+01  0.000E+00  0.000E+00  0.000E+00  1.05868E+03  6.790E-01  1.542E+01  6.166E-02  1.226E+00
   1    7    7     5     2    1.0205E+01  2.7894E-01   9.9265E+00  0.000E+00  0.000E+00  0.000E+00  1.05417E+03  6.732E-01  1.519E+01  7.594E-02  1.224E+00
   1    8    7     5     3    9.9265E+00  1.9221E-01   9.7343E+00  0.000E+00  0.000E+00  0.000E+00  1.04992E+03  6.676E-01  1.497E+01  5.241E-02  1.223E+00
   1    8    6     5     4    9.7343E+00  1.3577E-01   9.5985E+00  0.000E+00  0.000E+00  0.000E+00  1.04691E+03  6.637E-01  1.482E+01  3.706E-02  1.221E+00
   1    9    6     6     1    4.4091E+01  2.8292E-01   4.3808E+01  0.000E+00  0.000E+00  0.000E+00  1.04444E+03  1.715E+00  1.200E+01  6.000E-02  1.572E+00
   1   10    7     6     2    4.3808E+01  2.8252E-01   4.3526E+01  0.000E+00  0.000E+00  0.000E+00  1.03989E+03  1.709E+00  1.200E+01  6.000E-02  1.570E+00
   1   11    7     6     3    4.3526E+01  2.8212E-01   4.3244E+01  0.000E+00  0.000E+00  0.000E+00  1.03534E+03  1.702E+00  1.200E+01  6.000E-02  1.567E+00
   1   12    7     6     4    4.3244E+01  2.8173E-01   4.2962E+01  0.000E+00  0.000E+00  0.000E+00  1.03079E+03  1.695E+00  1.200E+01  6.000E-02  1.565E+00
   1   13    7     6     5    4.2962E+01  1.0596E-02   4.2951E+01  0.000E+00  0.000E+00  0.000E+00  1.02760E+03  1.692E+00  1.200E+01  2.400E-02  1.472E-01
   1   14    9     7     1    1.5000E+02  1.3362E+00   1.4866E+02  0.000E+00  0.000E+00  0.000E+00  1.03987E+03  2.288E+00  5.529E+01  5.593E-01  7.964E-01
   1   13    8     7     2    1.4866E+02  1.8203E+00   1.4684E+02  0.000E+00  0.000E+00  0.000E+00  1.03478E+03  2.279E+00  5.526E+01  6.148E-01  9.870E-01
   1   13    7     7     3    1.4684E+02  1.4132E+00   1.4543E+02  0.000E+00  0.000E+00  0.000E+00  1.02969E+03  2.271E+00  5.522E+01  5.585E-01  8.435E-01
   1   13    6     8     1    1.8838E+02  9.2545E-01   1.8746E+02  0.000E+00  0.000E+00  0.000E+00  1.02494E+03  3.066E+00  4.446E+01  4.530E-01  6.810E-01
   1   13    5     8     2    1.8746E+02  1.4610E-01   1.8731E+02  0.000E+00  0.000E+00  0.000E+00  1.01869E+03  3.063E+00  4.441E+01  4.525E-01  1.076E-01
   1   13    4     8     3    1.8731E+02 -2.5626E+00   1.8987E+02  0.000E+00  0.000E+00  0.000E+00  1.01245E+03  3.070E+00  4.451E+01  4.536E+00 -1.883E-01
   1   13    3     8     4    1.8987E+02 -3.6677E+00   1.9354E+02  0.000E+00  0.000E+00  0.000E+00  1.00621E+03  3.089E+00  4.479E+01  4.564E+00 -2.679E-01
   1   13    2     8     5    1.9354E+02 -2.6966E+00   1.9624E+02  0.000E+00  0.000E+00  0.000E+00  9.99983E+02  3.108E+00  4.507E+01  4.592E+00 -1.957E-01
   1   13    1     8     6    1.9624E+02 -2.0758E+00   1.9831E+02  0.000E+00  0.000E+00  0.000E+00  9.94997E+02  3.122E+00  4.527E+01  2.768E+00 -2.500E-01
   1    8    6     9     1    2.2239E+01  0.0000E+00   2.2239E+01  0.000E+00  0.000E+00  0.000E+00  1.08240E+03  3.651E+00  4.000E+00  0.000E+00  2.217E+00
   1    8    5     9     2    2.2239E+01  0.0000E+00   2.2239E+01  0.000E+00  0.000E+00  0.000E+00  1.08190E+03  3.651E+00  4.000E+00  0.000E+00  2.217E+00



 UBDSV3 SAVING "           GW ET" ON UNIT  61 AT TIME STEP 15, STRESS PERIOD   7
 UBDSV3 SAVING "    UZF RECHARGE" ON UNIT  61 AT TIME STEP 15, STRESS PERIOD   7
 UBDSV3 SAVING " SURFACE LEAKAGE" ON UNIT  61 AT TIME STEP 15, STRESS PERIOD   7
 UBDSV3 SAVING "       HORT+DUNN" ON UNIT  61 AT TIME STEP 15, STRESS PERIOD   7
 UBDSV3 SAVING "  STORAGE CHANGE" ON UNIT  61 AT TIME STEP 15, STRESS PERIOD   7


UNSATURATED ZONE PACKAGE VOLUMETRIC BUDGET FOR  TIME STEP    15 STRESS PERIOD    7
  ------------------------------------------------------------------------------



     CUMULATIVE VOLUMES      L**3       RATES FOR THIS TIME STEP      L**3/T
     ------------------                 ------------------------

           IN:                                      IN:
           ---                                      ---
        INFILTRATION =   121010958.6003          INFILTRATION =          26.6469

          OUT:                                     OUT:
          ----                                     ----
              UZF ET =   101327108.0894                UZF ET =          26.5916
        UZF RECHARGE =       73224.0000          UZF RECHARGE =       0.0000E+00

            IN - OUT =    19610626.5110              IN - OUT =       5.5231E-02

          STORAGE:                                 STORAGE:
          --------                                 --------
      STORAGE CHANGE =    19610625.6357        STORAGE CHANGE =       5.5230E-02

 PERCENT DISCREPANCY IS DIFFERENCE BETWEEN IN-OUT MINUS CHANGE IN STORAGE
 DIVIDED BY THE AVERAGE OF IN AND OUT TIMES 100

 PERCENT DISCREPANCY =           0.00     PERCENT DISCREPANCY =           0.00






 

            AG WELLS      PERIOD    7   STEP  15
 AG WELL      1   LAYER   1   ROW     6   COL     4   RATE     0.00000    
 AG WELL      2   LAYER   1   ROW     6   COL     5   RATE     0.00000    
 AG WELL      3   LAYER   1   ROW     7   COL     4   RATE     0.00000    
 AG WELL      4   LAYER   1   ROW     7   COL     5   RATE     0.00000    
 AG WELL      5   LAYER   1   ROW     8   COL     4   RATE     0.00000    
 AG WELL      6   LAYER   1   ROW     8   COL     5   RATE     0.00000    
 
 

   DIVERSION SEGMENTS     PERIOD    7   STEP  15
 SEGMENT      9   RATE     22.2389    
 
 

        SW IRRIGATION     PERIOD    7   STEP  15
 SEGMENT      9   ROW     6   COL     4   RATE     3.70656    
 SEGMENT      9   ROW     6   COL     5   RATE     3.70656    
 SEGMENT      9   ROW     7   COL     4   RATE     3.70656    
 SEGMENT      9   ROW     7   COL     5   RATE     3.70656    
 SEGMENT      9   ROW     8   COL     4   RATE     3.70656    
 SEGMENT      9   ROW     8   COL     5   RATE     3.70656    
 
 

        GW IRRIGATION     PERIOD    7   STEP  15
 AG WELL      1   ROW     6   COL     4   RATE     0.00000    
 AG WELL      2   ROW     6   COL     5   RATE     0.00000    
 AG WELL      3   ROW     7   COL     4   RATE     0.00000    
 AG WELL      4   ROW     7   COL     5   RATE     0.00000    
 AG WELL      5   ROW     8   COL     4   RATE     0.00000    
 AG WELL      6   ROW     8   COL     5   RATE     0.00000    
 
1
  VOLUMETRIC BUDGET FOR ENTIRE MODEL AT END OF TIME STEP   15, STRESS PERIOD   7
  ------------------------------------------------------------------------------

     CUMULATIVE VOLUMES      L**3       RATES FOR THIS TIME STEP      L**3/T
     ------------------                 ------------------------

           IN:                                      IN:
           ---                                      ---
               AG WELLS  =           0.0000                 AG WELLS  =           0.0000
      DIVERSION SEGMENTS =    57182112.0000        DIVERSION SEGMENTS =          22.2389
           GW IRRIGATION =           0.0000             GW IRRIGATION =           0.0000
           SW IRRIGATION =           0.0000             SW IRRIGATION =           0.0000
        SYSTEM LOSSES GW =           0.0000          SYSTEM LOSSES GW =           0.0000
        SYSTEM LOSSES SW =           0.0000          SYSTEM LOSSES SW =           0.0000

                TOTAL IN =    57182112.0000                  TOTAL IN =          22.2389

          OUT:                                     OUT:
          ----                                     ----
               AG WELLS  =           0.0000                 AG WELLS  =           0.0000
      DIVERSION SEGMENTS =           0.0000        DIVERSION SEGMENTS =           0.0000
           GW IRRIGATION =           0.0000             GW IRRIGATION =           0.0000
           SW IRRIGATION =    57183252.0000             SW IRRIGATION =          22.2394
        SYSTEM LOSSES GW =           0.0000          SYSTEM LOSSES GW =           0.0000
        SYSTEM LOSSES SW =           0.0000          SYSTEM LOSSES SW =           0.0000

               TOTAL OUT =    57183252.0000                 TOTAL OUT =          22.2394

                IN - OUT =       -1140.0000                  IN - OUT =      -4.4441E-04

     PERCENT DISCREPANCY =          -0.00         PERCENT DISCREPANCY =          -0.00



1
  VOLUMETRIC BUDGET FOR ENTIRE MODEL AT END OF TIME STEP   15, STRESS PERIOD   7
  ------------------------------------------------------------------------------

     CUMULATIVE VOLUMES      L**3       RATES FOR THIS TIME STEP      L**3/T
     ------------------                 ------------------------

           IN:                                      IN:
           ---                                      ---
             STORAGE     =    11074487.0000               STORAGE     =           0.7280
       CONSTANT HEAD     =           0.0000         CONSTANT HEAD     =           0.0000
     HEAD DEP BOUNDS     =     4157882.2500       HEAD DEP BOUNDS     =           0.2858
      STREAM LEAKAGE     =   177828912.0000        STREAM LEAKAGE     =          12.7012
        UZF RECHARGE     =       73223.9531          UZF RECHARGE     =           0.0000
               GW ET     =           0.0000                 GW ET     =           0.0000
     SURFACE LEAKAGE     =           0.0000       SURFACE LEAKAGE     =           0.0000
           AG WELLS      =           0.0000             AG WELLS      =           0.0000

                TOTAL IN =   193134496.0000                  TOTAL IN =          13.7150

          OUT:                                     OUT:
          ----                                     ----
             STORAGE     =    34838764.0000               STORAGE     =           2.2150
       CONSTANT HEAD     =           0.0000         CONSTANT HEAD     =           0.0000
     HEAD DEP BOUNDS     =     4246416.5000       HEAD DEP BOUNDS     =           0.2944
      STREAM LEAKAGE     =   152744832.0000        STREAM LEAKAGE     =          11.0027
        UZF RECHARGE     =           0.0000          UZF RECHARGE     =           0.0000
               GW ET     =     1306646.0000                 GW ET     =           0.2024
     SURFACE LEAKAGE     =           0.0000       SURFACE LEAKAGE     =           0.0000
           AG WELLS      =           0.0000             AG WELLS      =           0.0000

               TOTAL OUT =   193136656.0000                 TOTAL OUT =          13.7145

                IN - OUT =       -2160.0000                  IN - OUT =       4.8923E-04

     PERCENT DISCREPANCY =          -0.00         PERCENT DISCREPANCY =           0.00






         TIME SUMMARY AT END OF TIME STEP   15 IN STRESS PERIOD    7
                    SECONDS     MINUTES      HOURS       DAYS        YEARS
                    -----------------------------------------------------------
   TIME STEP LENGTH  87667.      1461.1      24.352      1.0147     2.77799E-03
 STRESS PERIOD TIME 1.31500E+06  21917.      365.28      15.220     4.16698E-02
         TOTAL TIME 1.45514E+07 2.42524E+05  4042.1      168.42     0.46111    
1
 
 SOLVING FOR HEAD 
                                                   Max.-Head-Change                         Max.-Flux-Residual
  Residual-Control   Outer-Iter.   Inner-Iter.     Column Row Layer    Maximum-Head-Change  Column Row Layer    Maximum-Flux-Residual          L2-NORM 
          0                 1           2             4   13     1       0.7022316624E-02       4   13    1         0.4521038956E+00      0.8605881054E+00
          0                 2           2             2   13     1      -0.6056890561E-02       4   13    1        -0.3852063500E+00      0.6615286445E+00
          0                 3           2             2   13     1      -0.1421822743E-02       4   13    1        -0.8526851350E-01      0.1501583132E+00
          0                 4           2             2   13     1      -0.5423451527E-03       4   13    1        -0.3317483276E-01      0.5781365712E-01
          0                 5           1             2   13     1      -0.3115018725E-04       4   13    1        -0.1822070890E-02      0.3255311384E-02

    ------------------------------------------------
       NWT REQUIRED            5 OUTER ITERATIONS 
       AND A TOTAL OF          9 INNER ITERATIONS.
    ------------------------------------------------

 NO OUTPUT CONTROL FOR STRESS PERIOD    7   TIME STEP   16
 
 SOLVING FOR HEAD 
                                                   Max.-Head-Change                         Max.-Flux-Residual
  Residual-Control   Outer-Iter.   Inner-Iter.     Column Row Layer    Maximum-Head-Change  Column Row Layer    Maximum-Flux-Residual          L2-NORM 
          0                 1           2             4   13     1       0.7152158414E-02       4   13    1         0.4604459387E+00      0.8741720059E+00
          0                 2           2             2   13     1      -0.6075102686E-02       4   13    1        -0.3856997120E+00      0.6627975190E+00
          0                 3           2             2   13     1      -0.1443362769E-02       4   13    1        -0.8656450330E-01      0.1524300898E+00
          0                 4           2             2   13     1      -0.5411545968E-03       4   13    1        -0.3307689110E-01      0.5766094040E-01
          0                 5           1             2   13     1      -0.3249516099E-04       4   13    1        -0.1899724017E-02      0.3392347660E-02

    ------------------------------------------------
       NWT REQUIRED            5 OUTER ITERATIONS 
       AND A TOTAL OF          9 INNER ITERATIONS.
    ------------------------------------------------

 NO OUTPUT CONTROL FOR STRESS PERIOD    7   TIME STEP   17
 
 SOLVING FOR HEAD 
                                                   Max.-Head-Change                         Max.-Flux-Residual
  Residual-Control   Outer-Iter.   Inner-Iter.     Column Row Layer    Maximum-Head-Change  Column Row Layer    Maximum-Flux-Residual          L2-NORM 
          0                 1           2             4   13     1       0.7260384530E-02       4   13    1         0.4673956159E+00      0.8861439627E+00
          0                 2           2             2   13     1      -0.6094732915E-02       4   13    1        -0.3862455900E+00      0.6641886161E+00
          0                 3           2             2   13     1      -0.1455445435E-02       4   13    1        -0.8728426865E-01      0.1536953946E+00
          0                 4           2             2   13     1      -0.5428579084E-03       4   13    1        -0.3315526405E-01      0.5781596061E-01
          0                 5           1             2   13     1      -0.3282894552E-04       4   13    1        -0.1919712393E-02      0.3427203179E-02

    ------------------------------------------------
       NWT REQUIRED            5 OUTER ITERATIONS 
       AND A TOTAL OF          9 INNER ITERATIONS.
    ------------------------------------------------

 NO OUTPUT CONTROL FOR STRESS PERIOD    7   TIME STEP   18
 
 SOLVING FOR HEAD 
                                                   Max.-Head-Change                         Max.-Flux-Residual
  Residual-Control   Outer-Iter.   Inner-Iter.     Column Row Layer    Maximum-Head-Change  Column Row Layer    Maximum-Flux-Residual          L2-NORM 
          0                 1           2             4   13     1       0.7350394323E-02       4   13    1         0.4731721238E+00      0.8967047379E+00
          0                 2           2             2   13     1      -0.6112386223E-02       4   13    1        -0.3866507016E+00      0.6653538646E+00
          0                 3           2             2   13     1      -0.1463495163E-02       4   13    1        -0.8775838922E-01      0.1545338551E+00
          0                 4           2             2   13     1      -0.5454614146E-03       4   13    1        -0.3329412676E-01      0.5807167307E-01
          0                 5           1             2   13     1      -0.3260731236E-04       4   13    1        -0.1905962145E-02      0.3404296245E-02

    ------------------------------------------------
       NWT REQUIRED            5 OUTER ITERATIONS 
       AND A TOTAL OF          9 INNER ITERATIONS.
    ------------------------------------------------

 NO OUTPUT CONTROL FOR STRESS PERIOD    7   TIME STEP   19
 
 SOLVING FOR HEAD 
                                                   Max.-Head-Change                         Max.-Flux-Residual
  Residual-Control   Outer-Iter.   Inner-Iter.     Column Row Layer    Maximum-Head-Change  Column Row Layer    Maximum-Flux-Residual          L2-NORM 
          0                 1           2             4   13     1       0.7424830975E-02       4   13    1         0.4779458510E+00      0.9060059887E+00
          0                 2           2             2   13     1      -0.6128527089E-02       4   13    1        -0.3869547838E+00      0.6663564022E+00
          0                 3           2             2   13     1      -0.1468308235E-02       4   13    1        -0.8803951126E-01      0.1550313379E+00
          0                 4           2             2   13     1      -0.5489638712E-03       4   13    1        -0.3348185713E-01      0.5841647053E-01
          0                 5           1             2   13     1      -0.3193595323E-04       4   13    1        -0.1868488140E-02      0.3337836961E-02

    ------------------------------------------------
       NWT REQUIRED            5 OUTER ITERATIONS 
       AND A TOTAL OF          9 INNER ITERATIONS.
    ------------------------------------------------

 NO OUTPUT CONTROL FOR STRESS PERIOD    7   TIME STEP   20
 
 SOLVING FOR HEAD 
                                                   Max.-Head-Change                         Max.-Flux-Residual
  Residual-Control   Outer-Iter.   Inner-Iter.     Column Row Layer    Maximum-Head-Change  Column Row Layer    Maximum-Flux-Residual          L2-NORM 
          0                 1           2             4   13     1       0.7486128666E-02       4   13    1         0.4818737480E+00      0.9142002694E+00
          0                 2           2             2   13     1      -0.6143262141E-02       4   13    1        -0.3871758494E+00      0.6672180970E+00
          0                 3           2             2   13     1      -0.1470953878E-02       4   13    1        -0.8819188993E-01      0.1553035498E+00
          0                 4           2             2   13     1      -0.5528190883E-03       4   13    1        -0.3370395282E-01      0.5881391031E-01
          0                 5           1             2   13     1      -0.3118172373E-04       4   13    1        -0.1815011188E-02      0.3248776920E-02

    ------------------------------------------------
       NWT REQUIRED            5 OUTER ITERATIONS 
       AND A TOTAL OF          9 INNER ITERATIONS.
    ------------------------------------------------

 NO OUTPUT CONTROL FOR STRESS PERIOD    7   TIME STEP   21
 
 SOLVING FOR HEAD 
                                                   Max.-Head-Change                         Max.-Flux-Residual
  Residual-Control   Outer-Iter.   Inner-Iter.     Column Row Layer    Maximum-Head-Change  Column Row Layer    Maximum-Flux-Residual          L2-NORM 
          0                 1           2             4   13     1       0.7536484648E-02       4   13    1         0.4850973260E+00      0.9214311273E+00
          0                 2           2             2   13     1      -0.6154084314E-02       4   13    1        -0.3871706595E+00      0.6676838947E+00
          0                 3           2             2   13     1      -0.1466381049E-02       4   13    1        -0.8790453286E-01      0.1548079342E+00
          0                 4           2             2   13     1      -0.5599491233E-03       4   13    1        -0.3412263813E-01      0.5955722235E-01
          0                 5           1             2   13     1      -0.3039414433E-04       4   13    1        -0.1766319163E-02      0.3162598770E-02

    ------------------------------------------------
       NWT REQUIRED            5 OUTER ITERATIONS 
       AND A TOTAL OF          9 INNER ITERATIONS.
    ------------------------------------------------

 NO OUTPUT CONTROL FOR STRESS PERIOD    7   TIME STEP   22
 
 SOLVING FOR HEAD 
                                                   Max.-Head-Change                         Max.-Flux-Residual
  Residual-Control   Outer-Iter.   Inner-Iter.     Column Row Layer    Maximum-Head-Change  Column Row Layer    Maximum-Flux-Residual          L2-NORM 
          0                 1           2             4   13     1       0.7576636203E-02       4   13    1         0.4876640524E+00      0.9277480379E+00
          0                 2           2             2   13     1      -0.6163622047E-02       4   13    1        -0.3871002143E+00      0.6680324519E+00
          0                 3           2             2   13     1      -0.1476583678E-02       4   13    1        -0.8852627399E-01      0.1558914052E+00
          0                 4           2             2   13     1      -0.5612961024E-03       4   13    1        -0.3418776067E-01      0.5968145248E-01
          0                 5           1             2   13     1      -0.3031598370E-04       2   13    1        -0.1759137322E-02      0.3152506436E-02

    ------------------------------------------------
       NWT REQUIRED            5 OUTER ITERATIONS 
       AND A TOTAL OF          9 INNER ITERATIONS.
    ------------------------------------------------

 NO OUTPUT CONTROL FOR STRESS PERIOD    7   TIME STEP   23
 
 SOLVING FOR HEAD 
                                                   Max.-Head-Change                         Max.-Flux-Residual
  Residual-Control   Outer-Iter.   Inner-Iter.     Column Row Layer    Maximum-Head-Change  Column Row Layer    Maximum-Flux-Residual          L2-NORM 
          0                 1           2             4   13     1       0.7610646635E-02       4   13    1         0.4898362183E+00      0.9334265125E+00
          0                 2           2             2   13     1      -0.6170858247E-02       4   13    1        -0.3869213527E+00      0.6681746273E+00
          0                 3           2             2   13     1      -0.1482783496E-02       4   13    1        -0.8890260992E-01      0.1565469163E+00
          0                 4           2             2   13     1      -0.5625582657E-03       4   13    1        -0.3424727827E-01      0.5979889725E-01
          0                 5           1             2   13     1      -0.2977952551E-04       2   13    1        -0.1728017519E-02      0.3095046070E-02

    ------------------------------------------------
       NWT REQUIRED            5 OUTER ITERATIONS 
       AND A TOTAL OF          9 INNER ITERATIONS.
    ------------------------------------------------

 NO OUTPUT CONTROL FOR STRESS PERIOD    7   TIME STEP   24
 
 SOLVING FOR HEAD 
                                                   Max.-Head-Change                         Max.-Flux-Residual
  Residual-Control   Outer-Iter.   Inner-Iter.     Column Row Layer    Maximum-Head-Change  Column Row Layer    Maximum-Flux-Residual          L2-NORM 
          0                 1           2             4   13     1       0.7638292019E-02       4   13    1         0.4915990830E+00      0.9384619568E+00
          0                 2           2             2   13     1      -0.6176977878E-02       4   13    1        -0.3866990412E+00      0.6682261600E+00
          0                 3           2             2   13     1      -0.1488999211E-02       4   13    1        -0.8928115359E-01      0.1572072948E+00
          0                 4           2             2   13     1      -0.5637842933E-03       4   13    1        -0.3430547679E-01      0.5991242478E-01
          0                 5           1             2   13     1      -0.2922873861E-04       2   13    1        -0.1696051579E-02      0.3037408149E-02

    ------------------------------------------------
       NWT REQUIRED            5 OUTER ITERATIONS 
       AND A TOTAL OF          9 INNER ITERATIONS.
    ------------------------------------------------

 NO OUTPUT CONTROL FOR STRESS PERIOD    7   TIME STEP   25
 
 SOLVING FOR HEAD 
                                                   Max.-Head-Change                         Max.-Flux-Residual
  Residual-Control   Outer-Iter.   Inner-Iter.     Column Row Layer    Maximum-Head-Change  Column Row Layer    Maximum-Flux-Residual          L2-NORM 
          0                 1           2             4   13     1       0.7660971126E-02       4   13    1         0.4930428220E+00      0.9429521666E+00
          0                 2           2             2   13     1      -0.6182020065E-02       4   13    1        -0.3864405843E+00      0.6681987908E+00
          0                 3           2             2   13     1      -0.1495249252E-02       4   13    1        -0.8966483261E-01      0.1578727730E+00
          0                 4           2             2   13     1      -0.5649483619E-03       4   13    1        -0.3436107683E-01      0.6002124274E-01
          0                 5           1             2   13     1      -0.2872720493E-04       2   13    1        -0.1666961300E-02      0.2982434181E-02

    ------------------------------------------------
       NWT REQUIRED            5 OUTER ITERATIONS 
       AND A TOTAL OF          9 INNER ITERATIONS.
    ------------------------------------------------

 NO OUTPUT CONTROL FOR STRESS PERIOD    7   TIME STEP   26
 
 SOLVING FOR HEAD 
                                                   Max.-Head-Change                         Max.-Flux-Residual
  Residual-Control   Outer-Iter.   Inner-Iter.     Column Row Layer    Maximum-Head-Change  Column Row Layer    Maximum-Flux-Residual          L2-NORM 
          0                 1           2             4   13     1       0.7679623865E-02       4   13    1         0.4942281322E+00      0.9469626158E+00
          0                 2           2             2   13     1      -0.6186084229E-02       4   13    1        -0.3861567579E+00      0.6681045364E+00
          0                 3           2             2   13     1      -0.1501543530E-02       4   13    1        -0.9004831068E-01      0.1585410721E+00
          0                 4           2             2   13     1      -0.5660660302E-03       4   13    1        -0.3441473536E-01      0.6012608657E-01
          0                 5           1             2   13     1      -0.2820249639E-04       2   13    1        -0.1636523855E-02      0.2925995051E-02

    ------------------------------------------------
       NWT REQUIRED            5 OUTER ITERATIONS 
       AND A TOTAL OF          9 INNER ITERATIONS.
    ------------------------------------------------

 NO OUTPUT CONTROL FOR STRESS PERIOD    7   TIME STEP   27
 
 SOLVING FOR HEAD 
                                                   Max.-Head-Change                         Max.-Flux-Residual
  Residual-Control   Outer-Iter.   Inner-Iter.     Column Row Layer    Maximum-Head-Change  Column Row Layer    Maximum-Flux-Residual          L2-NORM 
          0                 1           2             4   13     1       0.7694862808E-02       4   13    1         0.4951941086E+00      0.9505644981E+00
          0                 2           2             2   13     1      -0.6189292278E-02       4   13    1        -0.3858490020E+00      0.6679532750E+00
          0                 3           2             2   13     1      -0.1507868896E-02       4   13    1        -0.9043738296E-01      0.1592148242E+00
          0                 4           2             2   13     1      -0.5671352706E-03       4   13    1        -0.3446569264E-01      0.6022605625E-01
          0                 5           1             2   13     1      -0.2767593624E-04       2   13    1        -0.1605972374E-02      0.2869599773E-02

    ------------------------------------------------
       NWT REQUIRED            5 OUTER ITERATIONS 
       AND A TOTAL OF          9 INNER ITERATIONS.
    ------------------------------------------------

 NO OUTPUT CONTROL FOR STRESS PERIOD    7   TIME STEP   28
 
 SOLVING FOR HEAD 
                                                   Max.-Head-Change                         Max.-Flux-Residual
  Residual-Control   Outer-Iter.   Inner-Iter.     Column Row Layer    Maximum-Head-Change  Column Row Layer    Maximum-Flux-Residual          L2-NORM 
          0                 1           2             4   13     1       0.7707481645E-02       4   13    1         0.4959922620E+00      0.9537967384E+00
          0                 2           2             2   13     1      -0.6191654339E-02       4   13    1        -0.3855230091E+00      0.6677458155E+00
          0                 3           2             2   13     1      -0.1514239077E-02       4   13    1        -0.9082749842E-01      0.1598940678E+00
          0                 4           2             2   13     1      -0.5681669716E-03       4   13    1        -0.3451632559E-01      0.6032448286E-01
          0                 5           1             2   13     1      -0.2715225039E-04       2   13    1        -0.1575594584E-02      0.2813349493E-02

    ------------------------------------------------
       NWT REQUIRED            5 OUTER ITERATIONS 
       AND A TOTAL OF          9 INNER ITERATIONS.
    ------------------------------------------------

 NO OUTPUT CONTROL FOR STRESS PERIOD    7   TIME STEP   29
 
 SOLVING FOR HEAD 
                                                   Max.-Head-Change                         Max.-Flux-Residual
  Residual-Control   Outer-Iter.   Inner-Iter.     Column Row Layer    Maximum-Head-Change  Column Row Layer    Maximum-Flux-Residual          L2-NORM 
          0                 1           2             4   13     1       0.6159217356E-02       4   13    1         0.3961585713E+00      0.7910202816E+00
          0                 2           2             2   13     1      -0.6014646299E-02       4   13    1        -0.3734575249E+00      0.6472685143E+00
          0                 3           2             2   13     1      -0.1522822309E-02       4   13    1        -0.9130239420E-01      0.1606715770E+00
          0                 4           2             2   13     1      -0.5655353335E-03       4   13    1        -0.3429311514E-01      0.5995985891E-01
          0                 5           1             2   13     1      -0.2651277164E-04       2   13    1        -0.1537602673E-02      0.2743548099E-02

    ------------------------------------------------
       NWT REQUIRED            5 OUTER ITERATIONS 
       AND A TOTAL OF          9 INNER ITERATIONS.
    ------------------------------------------------

 NO OUTPUT CONTROL FOR STRESS PERIOD    7   TIME STEP   30



 STREAM LISTING     PERIOD      7   STEP       30

 LAYER ROW COL. STREAM  RCH.  FLOW INTO     FLOW TO   FLOW OUT OF   OVRLND.     DIRECT     STREAM       STREAM     STREAM     STREAM   STREAMBED  STREAMBED
                SEG.NO.  NO.  STRM. RCH.    AQUIFER    STRM. RCH.    RUNOFF     PRECIP       ET          HEAD       DEPTH      WIDTH   CONDCTNC.   GRADIENT

   1    1    1     1     1    5.7704E+01  3.6391E-01   5.7340E+01  0.000E+00  0.000E+00  0.000E+00  1.09454E+03  1.497E+00  1.798E+01  8.092E-02  1.499E+00
   1    2    2     1     2    5.7340E+01  5.6353E-01   5.6777E+01  0.000E+00  0.000E+00  0.000E+00  1.08955E+03  1.491E+00  1.792E+01  1.255E-01  1.497E+00
   1    3    3     1     3    5.6777E+01  4.8055E-01   5.6296E+01  0.000E+00  0.000E+00  0.000E+00  1.08390E+03  1.485E+00  1.786E+01  1.071E-01  1.495E+00
   1    3    4     1     4    5.6296E+01  4.4247E-01   5.5854E+01  0.000E+00  0.000E+00  0.000E+00  1.07889E+03  1.479E+00  1.780E+01  9.879E-02  1.493E+00
   1    4    5     2     1    5.3854E+01  3.8295E-01   5.3471E+01  0.000E+00  0.000E+00  0.000E+00  1.07384E+03  1.910E+00  1.200E+01  7.800E-02  1.637E+00
   1    5    6     2     2    5.3471E+01  2.9414E-01   5.3177E+01  0.000E+00  0.000E+00  0.000E+00  1.06841E+03  1.902E+00  1.200E+01  6.000E-02  1.634E+00
   1    6    6     2     3    5.3177E+01  2.9376E-01   5.2883E+01  0.000E+00  0.000E+00  0.000E+00  1.06369E+03  1.896E+00  1.200E+01  6.000E-02  1.632E+00
   1    7    6     2     4    5.2883E+01  2.9339E-01   5.2590E+01  0.000E+00  0.000E+00  0.000E+00  1.05897E+03  1.890E+00  1.200E+01  6.000E-02  1.630E+00
   1    8    6     2     5    5.2590E+01  2.9301E-01   5.2297E+01  0.000E+00  0.000E+00  0.000E+00  1.05424E+03  1.883E+00  1.200E+01  6.000E-02  1.628E+00
   1    3    5     3     1    2.0000E+00  2.8252E-01   1.7175E+00  0.000E+00  0.000E+00  0.000E+00  1.07555E+03  1.909E+00  9.636E+00  7.227E-02  1.955E+00
   1    3    6     3     2    1.7175E+00  2.4905E-01   1.4684E+00  0.000E+00  0.000E+00  0.000E+00  1.07264E+03  1.727E+00  8.909E+00  6.682E-02  1.864E+00
   1    3    7     3     3    1.4684E+00  1.9718E-01   1.2712E+00  0.000E+00  0.000E+00  0.000E+00  1.06987E+03  1.555E+00  8.218E+00  5.547E-02  1.777E+00
   1    4    8     3     4    1.2712E+00  2.2567E-01   1.0456E+00  0.000E+00  0.000E+00  0.000E+00  1.06682E+03  1.364E+00  7.455E+00  6.709E-02  1.682E+00
   1    5    8     3     5    1.0456E+00  1.5790E-01   8.8768E-01  0.000E+00  0.000E+00  0.000E+00  1.06362E+03  1.164E+00  6.655E+00  4.991E-02  1.582E+00
   1    6    8     3     6    8.8768E-01  5.5980E-02   8.3170E-01  0.000E+00  0.000E+00  0.000E+00  1.06158E+03  1.036E+00  6.145E+00  1.844E-02  1.518E+00
   1    5   10     4     1    1.0000E+01  9.0919E-02   9.9091E+00  0.000E+00  0.000E+00  0.000E+00  1.07836E+03  6.368E-01  1.000E+01  2.500E-02  1.212E+00
   1    5    9     4     2    9.9091E+00  1.8158E-01   9.7275E+00  0.000E+00  0.000E+00  0.000E+00  1.07154E+03  6.315E-01  1.000E+01  5.000E-02  1.211E+00
   1    6    8     4     3    9.7275E+00  1.2689E-01   9.6006E+00  0.000E+00  0.000E+00  0.000E+00  1.06381E+03  6.256E-01  1.000E+01  3.500E-02  1.209E+00
   1    6    8     5     1    1.0432E+01  2.2686E-01   1.0205E+01  0.000E+00  0.000E+00  0.000E+00  1.05868E+03  6.790E-01  1.542E+01  6.166E-02  1.226E+00
   1    7    7     5     2    1.0205E+01  2.7894E-01   9.9265E+00  0.000E+00  0.000E+00  0.000E+00  1.05417E+03  6.732E-01  1.519E+01  7.594E-02  1.224E+00
   1    8    7     5     3    9.9265E+00  1.9221E-01   9.7343E+00  0.000E+00  0.000E+00  0.000E+00  1.04992E+03  6.676E-01  1.497E+01  5.241E-02  1.223E+00
   1    8    6     5     4    9.7343E+00  1.3577E-01   9.5985E+00  0.000E+00  0.000E+00  0.000E+00  1.04691E+03  6.637E-01  1.482E+01  3.706E-02  1.221E+00
   1    9    6     6     1    3.9586E+01  2.7632E-01   3.9310E+01  0.000E+00  0.000E+00  0.000E+00  1.04433E+03  1.605E+00  1.200E+01  6.000E-02  1.535E+00
   1   10    7     6     2    3.9310E+01  2.7592E-01   3.9034E+01  0.000E+00  0.000E+00  0.000E+00  1.03978E+03  1.599E+00  1.200E+01  6.000E-02  1.533E+00
   1   11    7     6     3    3.9034E+01  2.7551E-01   3.8758E+01  0.000E+00  0.000E+00  0.000E+00  1.03523E+03  1.592E+00  1.200E+01  6.000E-02  1.531E+00
   1   12    7     6     4    3.8758E+01  2.7511E-01   3.8483E+01  0.000E+00  0.000E+00  0.000E+00  1.03068E+03  1.585E+00  1.200E+01  6.000E-02  1.528E+00
   1   13    7     6     5    3.8483E+01  7.8576E-03   3.8475E+01  0.000E+00  0.000E+00  0.000E+00  1.02749E+03  1.582E+00  1.200E+01  2.400E-02  1.091E-01
   1   14    9     7     1    1.5000E+02  1.3362E+00   1.4866E+02  0.000E+00  0.000E+00  0.000E+00  1.03987E+03  2.288E+00  5.529E+01  5.593E-01  7.963E-01
   1   13    8     7     2    1.4866E+02  1.8188E+00   1.4685E+02  0.000E+00  0.000E+00  0.000E+00  1.03478E+03  2.279E+00  5.526E+01  6.148E-01  9.862E-01
   1   13    7     7     3    1.4685E+02  1.4111E+00   1.4543E+02  0.000E+00  0.000E+00  0.000E+00  1.02969E+03  2.271E+00  5.522E+01  5.585E-01  8.422E-01
   1   13    6     8     1    1.8391E+02  9.0556E-01   1.8300E+02  0.000E+00  0.000E+00  0.000E+00  1.02491E+03  3.038E+00  4.405E+01  4.489E-01  6.725E-01
   1   13    5     8     2    1.8300E+02  1.3426E-01   1.8287E+02  0.000E+00  0.000E+00  0.000E+00  1.01866E+03  3.035E+00  4.400E+01  4.484E-01  9.981E-02
   1   13    4     8     3    1.8287E+02 -2.6419E+00   1.8551E+02  0.000E+00  0.000E+00  0.000E+00  1.01242E+03  3.042E+00  4.411E+01  4.495E+00 -1.959E-01
   1   13    3     8     4    1.8551E+02 -3.7314E+00   1.8924E+02  0.000E+00  0.000E+00  0.000E+00  1.00619E+03  3.062E+00  4.440E+01  4.524E+00 -2.749E-01
   1   13    2     8     5    1.8924E+02 -2.6921E+00   1.9193E+02  0.000E+00  0.000E+00  0.000E+00  9.99957E+02  3.082E+00  4.468E+01  4.553E+00 -1.971E-01
   1   13    1     8     6    1.9193E+02 -2.0712E+00   1.9401E+02  0.000E+00  0.000E+00  0.000E+00  9.94971E+02  3.096E+00  4.489E+01  2.745E+00 -2.515E-01
   1    8    6     9     1    2.2309E+01  0.0000E+00   2.2309E+01  0.000E+00  0.000E+00  0.000E+00  1.08242E+03  3.667E+00  4.000E+00  0.000E+00  2.222E+00
   1    8    5     9     2    2.2309E+01  0.0000E+00   2.2309E+01  0.000E+00  0.000E+00  0.000E+00  1.08192E+03  3.667E+00  4.000E+00  0.000E+00  2.222E+00





UNSATURATED ZONE PACKAGE VOLUMETRIC BUDGET FOR  TIME STEP    30 STRESS PERIOD    7
  ------------------------------------------------------------------------------



     CUMULATIVE VOLUMES      L**3       RATES FOR THIS TIME STEP      L**3/T
     ------------------                 ------------------------

           IN:                                      IN:
           ---                                      ---
        INFILTRATION =   156132727.6716          INFILTRATION =          26.7170

          OUT:                                     OUT:
          ----                                     ----
              UZF ET =   136312408.9106                UZF ET =          26.6075
        UZF RECHARGE =       73224.0000          UZF RECHARGE =       0.0000E+00

            IN - OUT =    19747094.7610              IN - OUT =           0.1095

          STORAGE:                                 STORAGE:
          --------                                 --------
      STORAGE CHANGE =    19747093.8883        STORAGE CHANGE =           0.1095

 PERCENT DISCREPANCY IS DIFFERENCE BETWEEN IN-OUT MINUS CHANGE IN STORAGE
 DIVIDED BY THE AVERAGE OF IN AND OUT TIMES 100

 PERCENT DISCREPANCY =           0.00     PERCENT DISCREPANCY =           0.00






1
  VOLUMETRIC BUDGET FOR ENTIRE MODEL AT END OF TIME STEP   30, STRESS PERIOD   7
  ------------------------------------------------------------------------------

     CUMULATIVE VOLUMES      L**3       RATES FOR THIS TIME STEP      L**3/T
     ------------------                 ------------------------

           IN:                                      IN:
           ---                                      ---
               AG WELLS  =           0.0000                 AG WELLS  =           0.0000
      DIVERSION SEGMENTS =    86507416.0000        DIVERSION SEGMENTS =          22.3091
           GW IRRIGATION =           0.0000             GW IRRIGATION =           0.0000
           SW IRRIGATION =           0.0000             SW IRRIGATION =           0.0000
        SYSTEM LOSSES GW =           0.0000          SYSTEM LOSSES GW =           0.0000
        SYSTEM LOSSES SW =           0.0000          SYSTEM LOSSES SW =           0.0000

                TOTAL IN =    86507416.0000                  TOTAL IN =          22.3091

          OUT:                                     OUT:
          ----                                     ----
               AG WELLS  =           0.0000                 AG WELLS  =           0.0000
      DIVERSION SEGMENTS =           0.0000        DIVERSION SEGMENTS =           0.0000
           GW IRRIGATION =           0.0000             GW IRRIGATION =           0.0000
           SW IRRIGATION =    86509144.0000             SW IRRIGATION =          22.3095
        SYSTEM LOSSES GW =           0.0000          SYSTEM LOSSES GW =           0.0000
        SYSTEM LOSSES SW =           0.0000          SYSTEM LOSSES SW =           0.0000

               TOTAL OUT =    86509144.0000                 TOTAL OUT =          22.3095

                IN - OUT =       -1728.0000                  IN - OUT =      -4.4441E-04

     PERCENT DISCREPANCY =          -0.00         PERCENT DISCREPANCY =          -0.00



1
  VOLUMETRIC BUDGET FOR ENTIRE MODEL AT END OF TIME STEP   30, STRESS PERIOD   7
  ------------------------------------------------------------------------------

     CUMULATIVE VOLUMES      L**3       RATES FOR THIS TIME STEP      L**3/T
     ------------------                 ------------------------

           IN:                                      IN:
           ---                                      ---
             STORAGE     =    11822120.0000               STORAGE     =           0.7626
       CONSTANT HEAD     =           0.0000         CONSTANT HEAD     =           0.0000
     HEAD DEP BOUNDS     =     4533691.5000       HEAD DEP BOUNDS     =           0.2858
      STREAM LEAKAGE     =   194512896.0000        STREAM LEAKAGE     =          12.5258
        UZF RECHARGE     =       73223.9531          UZF RECHARGE     =           0.0000
               GW ET     =           0.0000                 GW ET     =           0.0000
     SURFACE LEAKAGE     =           0.0000       SURFACE LEAKAGE     =           0.0000
           AG WELLS      =           0.0000             AG WELLS      =           0.0000

                TOTAL IN =   210941920.0000                  TOTAL IN =          13.5742

          OUT:                                     OUT:
          ----                                     ----
             STORAGE     =    37697884.0000               STORAGE     =           2.0203
       CONSTANT HEAD     =           0.0000         CONSTANT HEAD     =           0.0000
     HEAD DEP BOUNDS     =     4632925.0000       HEAD DEP BOUNDS     =           0.2936
      STREAM LEAKAGE     =   167098768.0000        STREAM LEAKAGE     =          11.1366
        UZF RECHARGE     =           0.0000          UZF RECHARGE     =           0.0000
               GW ET     =     1513845.1250                 GW ET     =           0.1233
     SURFACE LEAKAGE     =           0.0000       SURFACE LEAKAGE     =           0.0000
           AG WELLS      =           0.0000             AG WELLS      =           0.0000

               TOTAL OUT =   210943408.0000                 TOTAL OUT =          13.5738

                IN - OUT =       -1488.0000                  IN - OUT =       4.4250E-04

     PERCENT DISCREPANCY =          -0.00         PERCENT DISCREPANCY =           0.00






         TIME SUMMARY AT END OF TIME STEP   30 IN STRESS PERIOD    7
                    SECONDS     MINUTES      HOURS       DAYS        YEARS
                    -----------------------------------------------------------
   TIME STEP LENGTH  87667.      1461.1      24.352      1.0147     2.77799E-03
 STRESS PERIOD TIME 2.63000E+06  43833.      730.56      30.440     8.33397E-02
         TOTAL TIME 1.58664E+07 2.64440E+05  4407.3      183.64     0.50278    
1
1
                            STRESS PERIOD NO.    8, LENGTH =   2630000.    
                            -----------------------------------------------

                              NUMBER OF TIME STEPS =    30

                               MULTIPLIER FOR DELT =     1.000

                            INITIAL TIME STEP SIZE =   87666.66    

 REUSING NON-PARAMETER GHB CELLS FROM LAST STRESS PERIOD

      2 GHB CELLS

 REUSING STREAM SEGMENT DATA FROM LAST STRESS PERIOD



            AREAL INFILTRATION RATE
 READING ON UNIT   19 WITH FORMAT: (10F4.0)            

            1           2           3           4           5           6           7           8           9          10
 ........................................................................................................................
   1   1.2000E-09   0.000       0.000       0.000       0.000       0.000       0.000       0.000       0.000       0.000    
   2   2.1000E-09  2.0000E-09  8.0000E-10  8.5000E-09   0.000       0.000       0.000       0.000       0.000       0.000    
   3   5.0000E-10  1.1000E-09  8.8000E-09  5.5000E-09   0.000       0.000       0.000       0.000       0.000       0.000    
   4   8.5000E-09  1.1000E-09  1.1000E-09  1.1000E-09  2.0000E-09   0.000       0.000       0.000       0.000       0.000    
   5   8.5000E-09  1.1000E-09  1.1000E-09  1.1000E-09  1.1000E-09   0.000       0.000       0.000       0.000       0.000    
   6   8.5000E-09  5.2000E-09  2.1000E-09  1.1000E-09  1.5000E-09   0.000       0.000       0.000       0.000       0.000    
   7   8.5000E-09  5.2000E-09  2.1000E-09  1.2000E-09  2.0000E-09   0.000       0.000       0.000       0.000       0.000    
   8   5.0000E-10  5.2000E-09  2.1000E-09  1.2000E-09  5.0000E-09   0.000       0.000       0.000       0.000       0.000    
   9   5.0000E-10  5.2000E-09  2.1000E-09  1.2000E-09  5.0000E-09   0.000       0.000       0.000       0.000       0.000    
  10   5.0000E-10  5.2000E-09  2.1000E-09  1.2000E-09  5.8000E-09   0.000       0.000       0.000       0.000       0.000    
  11   1.0000E-10  1.1000E-09  1.1000E-09  1.2000E-09  5.0000E-09   0.000       0.000       0.000       0.000       0.000    
  12   1.1000E-09  1.1000E-09  1.1000E-09  1.1000E-09  2.0000E-09   0.000       0.000       0.000       0.000       0.000    
  13   1.1000E-09  2.2000E-09  2.2000E-09  2.1000E-09  1.0000E-09   0.000       0.000       0.000       0.000       0.000    
  14   2.0000E-10  5.5000E-09  5.5000E-09  5.2000E-09  1.0000E-09   0.000       0.000       0.000       0.000       0.000    
  15    0.000      8.8000E-09  8.8000E-09   0.000       0.000       0.000       0.000       0.000       0.000       0.000    

                  ET RATE =  4.000000E-07

 USING ET EXTINCTION DEPTH FROM PREVIOUS STRESS PERIOD. CURRENT PERIOD IS:       8

 USING EXTINCTION WATER CONTENT FROM PREVIOUS STRESS PERIOD. CURRENT PERIOD IS:       8

 USING AIR ENTRY PRESSURE FROM PREVIOUS STRESS PERIOD. CURRENT PERIOD IS:       8

 USING ROOT PRESSURE HEAD FROM PREVIOUS STRESS PERIOD. CURRENT PERIOD IS:       8

 USING ROOT ACTIVITY FROM PREVIOUS STRESS PERIOD. CURRENT PERIOD IS:       8

 PROCESSING AG STRESS PERIOD DATA

 READING AG STRESS PERIOD DATA

 READING IRRIGATION SEGMENT

 READING IRRIGATION WELL

 READING SUPPLEMENTAL WELL

 END PROCESSING AG STRESS PERIOD DATA OPTIONS
 
 SOLVING FOR HEAD 
                                                   Max.-Head-Change                         Max.-Flux-Residual
  Residual-Control   Outer-Iter.   Inner-Iter.     Column Row Layer    Maximum-Head-Change  Column Row Layer    Maximum-Flux-Residual          L2-NORM 
          0                 1           2             2   13     1       0.5545996542E-02       4   13    1         0.3207803896E+00      0.6772514390E+00
          0                 2           2             2   13     1      -0.1794250767E-01       4   13    1        -0.1089338514E+01      0.2715551680E+01
          0                 3           2             4    7     1      -0.1030411628E-01       4    8    1        -0.5534379309E+00      0.1363859086E+01
          0                 4           2             4    7     1      -0.9097803863E-03       5    6    1        -0.4886742822E-01      0.1201260758E+00
          0                 5           1             4    7     1       0.3137375316E-04       5    6    1         0.1732502928E-02      0.4262683128E-02

    ------------------------------------------------
       NWT REQUIRED            5 OUTER ITERATIONS 
       AND A TOTAL OF          9 INNER ITERATIONS.
    ------------------------------------------------

 OUTPUT CONTROL FOR STRESS PERIOD    8   TIME STEP    1
    PRINT BUDGET
    SAVE BUDGET
 UBDSV1 SAVING "         STORAGE" ON UNIT 102 AT TIME STEP  1, STRESS PERIOD   8
 UBDSV2 SAVING "   CONSTANT HEAD" ON UNIT 102 AT TIME STEP  1, STRESS PERIOD   8
 UBDSV1 SAVING "FLOW RIGHT FACE " ON UNIT 102 AT TIME STEP  1, STRESS PERIOD   8
 UBDSV1 SAVING "FLOW FRONT FACE " ON UNIT 102 AT TIME STEP  1, STRESS PERIOD   8

  HEAD DEP BOUNDS   PERIOD    8   STEP     1
 BOUNDARY      1   LAYER   1   ROW    13   COL     1   RATE   -0.293291    
 BOUNDARY      2   LAYER   1   ROW    14   COL     9   RATE    0.285784    



 STREAM LISTING     PERIOD      8   STEP        1

 LAYER ROW COL. STREAM  RCH.  FLOW INTO     FLOW TO   FLOW OUT OF   OVRLND.     DIRECT     STREAM       STREAM     STREAM     STREAM   STREAMBED  STREAMBED
                SEG.NO.  NO.  STRM. RCH.    AQUIFER    STRM. RCH.    RUNOFF     PRECIP       ET          HEAD       DEPTH      WIDTH   CONDCTNC.   GRADIENT

   1    1    1     1     1    5.6250E+01  3.5875E-01   5.5891E+01  0.000E+00  0.000E+00  0.000E+00  1.09453E+03  1.479E+00  1.780E+01  8.010E-02  1.493E+00
   1    2    2     1     2    5.5891E+01  5.5550E-01   5.5336E+01  0.000E+00  0.000E+00  0.000E+00  1.08953E+03  1.473E+00  1.774E+01  1.242E-01  1.491E+00
   1    3    3     1     3    5.5336E+01  4.7368E-01   5.4862E+01  0.000E+00  0.000E+00  0.000E+00  1.08389E+03  1.467E+00  1.767E+01  1.060E-01  1.489E+00
   1    3    4     1     4    5.4862E+01  4.3613E-01   5.4426E+01  0.000E+00  0.000E+00  0.000E+00  1.07887E+03  1.461E+00  1.762E+01  9.777E-02  1.487E+00
   1    4    5     2     1    5.2426E+01  3.8056E-01   5.2046E+01  0.000E+00  0.000E+00  0.000E+00  1.07381E+03  1.879E+00  1.200E+01  7.800E-02  1.626E+00
   1    5    6     2     2    5.2046E+01  2.9230E-01   5.1753E+01  0.000E+00  0.000E+00  0.000E+00  1.06838E+03  1.872E+00  1.200E+01  6.000E-02  1.624E+00
   1    6    6     2     3    5.1753E+01  2.9192E-01   5.1461E+01  0.000E+00  0.000E+00  0.000E+00  1.06366E+03  1.865E+00  1.200E+01  6.000E-02  1.622E+00
   1    7    6     2     4    5.1461E+01  2.9154E-01   5.1170E+01  0.000E+00  0.000E+00  0.000E+00  1.05893E+03  1.859E+00  1.200E+01  6.000E-02  1.620E+00
   1    8    6     2     5    5.1170E+01  2.9116E-01   5.0879E+01  0.000E+00  0.000E+00  0.000E+00  1.05421E+03  1.853E+00  1.200E+01  6.000E-02  1.618E+00
   1    3    5     3     1    2.0000E+00  2.8252E-01   1.7175E+00  0.000E+00  0.000E+00  0.000E+00  1.07555E+03  1.909E+00  9.636E+00  7.227E-02  1.955E+00
   1    3    6     3     2    1.7175E+00  2.4905E-01   1.4684E+00  0.000E+00  0.000E+00  0.000E+00  1.07264E+03  1.727E+00  8.909E+00  6.682E-02  1.864E+00
   1    3    7     3     3    1.4684E+00  1.9718E-01   1.2712E+00  0.000E+00  0.000E+00  0.000E+00  1.06987E+03  1.555E+00  8.218E+00  5.547E-02  1.777E+00
   1    4    8     3     4    1.2712E+00  2.2567E-01   1.0456E+00  0.000E+00  0.000E+00  0.000E+00  1.06682E+03  1.364E+00  7.455E+00  6.709E-02  1.682E+00
   1    5    8     3     5    1.0456E+00  1.5790E-01   8.8768E-01  0.000E+00  0.000E+00  0.000E+00  1.06362E+03  1.164E+00  6.655E+00  4.991E-02  1.582E+00
   1    6    8     3     6    8.8768E-01  5.5980E-02   8.3170E-01  0.000E+00  0.000E+00  0.000E+00  1.06158E+03  1.036E+00  6.145E+00  1.844E-02  1.518E+00
   1    5   10     4     1    1.0000E+01  9.0919E-02   9.9091E+00  0.000E+00  0.000E+00  0.000E+00  1.07836E+03  6.368E-01  1.000E+01  2.500E-02  1.212E+00
   1    5    9     4     2    9.9091E+00  1.8158E-01   9.7275E+00  0.000E+00  0.000E+00  0.000E+00  1.07154E+03  6.315E-01  1.000E+01  5.000E-02  1.211E+00
   1    6    8     4     3    9.7275E+00  1.2689E-01   9.6006E+00  0.000E+00  0.000E+00  0.000E+00  1.06381E+03  6.256E-01  1.000E+01  3.500E-02  1.209E+00
   1    6    8     5     1    1.0432E+01  2.2686E-01   1.0205E+01  0.000E+00  0.000E+00  0.000E+00  1.05868E+03  6.790E-01  1.542E+01  6.166E-02  1.226E+00
   1    7    7     5     2    1.0205E+01  2.7894E-01   9.9265E+00  0.000E+00  0.000E+00  0.000E+00  1.05417E+03  6.732E-01  1.519E+01  7.594E-02  1.224E+00
   1    8    7     5     3    9.9265E+00  1.9221E-01   9.7343E+00  0.000E+00  0.000E+00  0.000E+00  1.04992E+03  6.676E-01  1.497E+01  5.241E-02  1.223E+00
   1    8    6     5     4    9.7343E+00  1.3577E-01   9.5985E+00  0.000E+00  0.000E+00  0.000E+00  1.04691E+03  6.637E-01  1.482E+01  3.706E-02  1.221E+00
   1    9    6     6     1    9.5985E+00  2.2097E-01   9.3776E+00  0.000E+00  0.000E+00  0.000E+00  1.04341E+03  6.828E-01  1.200E+01  6.000E-02  1.228E+00
   1   10    7     6     2    9.3776E+00  2.2039E-01   9.1572E+00  0.000E+00  0.000E+00  0.000E+00  1.03885E+03  6.732E-01  1.200E+01  6.000E-02  1.224E+00
   1   11    7     6     3    9.1572E+00  2.1981E-01   8.9374E+00  0.000E+00  0.000E+00  0.000E+00  1.03430E+03  6.636E-01  1.200E+01  6.000E-02  1.221E+00
   1   12    7     6     4    8.9374E+00  2.1923E-01   8.7181E+00  0.000E+00  0.000E+00  0.000E+00  1.02974E+03  6.539E-01  1.200E+01  6.000E-02  1.218E+00
   1   13    7     6     5    8.7181E+00 -1.4391E-01   8.8620E+00  0.000E+00  0.000E+00  0.000E+00  1.02656E+03  6.522E-01  1.200E+01  2.400E-01 -1.999E-01
   1   14    9     7     1    1.5000E+02  1.3362E+00   1.4866E+02  0.000E+00  0.000E+00  0.000E+00  1.03987E+03  2.288E+00  5.529E+01  5.593E-01  7.963E-01
   1   13    8     7     2    1.4866E+02  1.8187E+00   1.4685E+02  0.000E+00  0.000E+00  0.000E+00  1.03478E+03  2.279E+00  5.526E+01  6.148E-01  9.861E-01
   1   13    7     7     3    1.4685E+02  1.4124E+00   1.4543E+02  0.000E+00  0.000E+00  0.000E+00  1.02969E+03  2.271E+00  5.522E+01  5.585E-01  8.431E-01
   1   13    6     8     1    1.5429E+02  7.6766E-01   1.5353E+02  0.000E+00  0.000E+00  0.000E+00  1.02472E+03  2.844E+00  4.124E+01  4.203E-01  6.089E-01
   1   13    5     8     2    1.5353E+02  4.5468E-02   1.5348E+02  0.000E+00  0.000E+00  0.000E+00  1.01847E+03  2.841E+00  4.120E+01  4.198E-01  3.610E-02
   1   13    4     8     3    1.5348E+02 -3.2319E+00   1.5671E+02  0.000E+00  0.000E+00  0.000E+00  1.01223E+03  2.852E+00  4.136E+01  4.215E+00 -2.556E-01
   1   13    3     8     4    1.5671E+02 -4.2490E+00   1.6096E+02  0.000E+00  0.000E+00  0.000E+00  1.00600E+03  2.878E+00  4.173E+01  4.252E+00 -3.331E-01
   1   13    2     8     5    1.6096E+02 -3.2499E+00   1.6421E+02  0.000E+00  0.000E+00  0.000E+00  9.99778E+02  2.903E+00  4.210E+01  4.290E+00 -2.525E-01
   1   13    1     8     6    1.6421E+02 -2.3863E+00   1.6660E+02  0.000E+00  0.000E+00  0.000E+00  9.94797E+02  2.922E+00  4.237E+01  2.591E+00 -3.070E-01
   1    8    6     9     1    5.0879E+01  0.0000E+00   5.0879E+01  0.000E+00  0.000E+00  0.000E+00  1.08476E+03  6.014E+00  4.000E+00  0.000E+00  3.005E+00
   1    8    5     9     2    5.0879E+01  0.0000E+00   5.0879E+01  0.000E+00  0.000E+00  0.000E+00  1.08426E+03  6.014E+00  4.000E+00  0.000E+00  3.005E+00



 UBDSV3 SAVING "           GW ET" ON UNIT  61 AT TIME STEP  1, STRESS PERIOD   8
 UBDSV3 SAVING "    UZF RECHARGE" ON UNIT  61 AT TIME STEP  1, STRESS PERIOD   8
 UBDSV3 SAVING " SURFACE LEAKAGE" ON UNIT  61 AT TIME STEP  1, STRESS PERIOD   8
 UBDSV3 SAVING "       HORT+DUNN" ON UNIT  61 AT TIME STEP  1, STRESS PERIOD   8
 UBDSV3 SAVING "  STORAGE CHANGE" ON UNIT  61 AT TIME STEP  1, STRESS PERIOD   8


UNSATURATED ZONE PACKAGE VOLUMETRIC BUDGET FOR  TIME STEP     1 STRESS PERIOD    8
  ------------------------------------------------------------------------------



     CUMULATIVE VOLUMES      L**3       RATES FOR THIS TIME STEP      L**3/T
     ------------------                 ------------------------

           IN:                                      IN:
           ---                                      ---
        INFILTRATION =   161763239.4285          INFILTRATION =          64.2264

          OUT:                                     OUT:
          ----                                     ----
              UZF ET =   141932211.9175                UZF ET =          64.1042
        UZF RECHARGE =       73224.0000          UZF RECHARGE =       0.0000E+00

            IN - OUT =    19757803.5110              IN - OUT =           0.1222

          STORAGE:                                 STORAGE:
          --------                                 --------
      STORAGE CHANGE =    19757802.5717        STORAGE CHANGE =           0.1222

 PERCENT DISCREPANCY IS DIFFERENCE BETWEEN IN-OUT MINUS CHANGE IN STORAGE
 DIVIDED BY THE AVERAGE OF IN AND OUT TIMES 100

 PERCENT DISCREPANCY =           0.00     PERCENT DISCREPANCY =           0.00






 

            AG WELLS      PERIOD    8   STEP   1
 AG WELL      1   LAYER   1   ROW     6   COL     4   RATE    -1.48987    
 AG WELL      2   LAYER   1   ROW     6   COL     5   RATE    -1.48987    
 AG WELL      3   LAYER   1   ROW     7   COL     4   RATE    -1.48987    
 AG WELL      4   LAYER   1   ROW     7   COL     5   RATE    -1.48987    
 AG WELL      5   LAYER   1   ROW     8   COL     4   RATE    -1.48987    
 AG WELL      6   LAYER   1   ROW     8   COL     5   RATE    -1.48987    
 
 

   DIVERSION SEGMENTS     PERIOD    8   STEP   1
 SEGMENT      9   RATE     50.8787    
 
 

        SW IRRIGATION     PERIOD    8   STEP   1
 SEGMENT      9   ROW     6   COL     4   RATE     8.47995    
 SEGMENT      9   ROW     6   COL     5   RATE     8.47995    
 SEGMENT      9   ROW     7   COL     4   RATE     8.47995    
 SEGMENT      9   ROW     7   COL     5   RATE     8.47995    
 SEGMENT      9   ROW     8   COL     4   RATE     8.47995    
 SEGMENT      9   ROW     8   COL     5   RATE     8.47995    
 
 

        GW IRRIGATION     PERIOD    8   STEP   1
 AG WELL      1   ROW     6   COL     4   RATE     1.48987    
 AG WELL      2   ROW     6   COL     5   RATE     1.48987    
 AG WELL      3   ROW     7   COL     4   RATE     1.48987    
 AG WELL      4   ROW     7   COL     5   RATE     1.48987    
 AG WELL      5   ROW     8   COL     4   RATE     1.48987    
 AG WELL      6   ROW     8   COL     5   RATE     1.48987    
 
1
  VOLUMETRIC BUDGET FOR ENTIRE MODEL AT END OF TIME STEP    1, STRESS PERIOD   8
  ------------------------------------------------------------------------------

     CUMULATIVE VOLUMES      L**3       RATES FOR THIS TIME STEP      L**3/T
     ------------------                 ------------------------

           IN:                                      IN:
           ---                                      ---
               AG WELLS  =      783669.9375                 AG WELLS  =           8.9392
      DIVERSION SEGMENTS =    90967776.0000        DIVERSION SEGMENTS =          50.8787
           GW IRRIGATION =           0.0000             GW IRRIGATION =           0.0000
           SW IRRIGATION =           0.0000             SW IRRIGATION =           0.0000
        SYSTEM LOSSES GW =           0.0000          SYSTEM LOSSES GW =           0.0000
        SYSTEM LOSSES SW =           0.0000          SYSTEM LOSSES SW =           0.0000

                TOTAL IN =    91751448.0000                  TOTAL IN =          59.8179

          OUT:                                     OUT:
          ----                                     ----
               AG WELLS  =           0.0000                 AG WELLS  =           0.0000
      DIVERSION SEGMENTS =           0.0000        DIVERSION SEGMENTS =           0.0000
           GW IRRIGATION =      783669.9375             GW IRRIGATION =           8.9392
           SW IRRIGATION =    90969592.0000             SW IRRIGATION =          50.8797
        SYSTEM LOSSES GW =           0.0000          SYSTEM LOSSES GW =           0.0000
        SYSTEM LOSSES SW =           0.0000          SYSTEM LOSSES SW =           0.0000

               TOTAL OUT =    91753264.0000                 TOTAL OUT =          59.8189

                IN - OUT =       -1816.0000                  IN - OUT =      -1.0147E-03

     PERCENT DISCREPANCY =          -0.00         PERCENT DISCREPANCY =          -0.00



1
  VOLUMETRIC BUDGET FOR ENTIRE MODEL AT END OF TIME STEP    1, STRESS PERIOD   8
  ------------------------------------------------------------------------------

     CUMULATIVE VOLUMES      L**3       RATES FOR THIS TIME STEP      L**3/T
     ------------------                 ------------------------

           IN:                                      IN:
           ---                                      ---
             STORAGE     =    12863954.0000               STORAGE     =          11.8840
       CONSTANT HEAD     =           0.0000         CONSTANT HEAD     =           0.0000
     HEAD DEP BOUNDS     =     4558745.0000       HEAD DEP BOUNDS     =           0.2858
      STREAM LEAKAGE     =   195567872.0000        STREAM LEAKAGE     =          12.0339
        UZF RECHARGE     =       73223.9531          UZF RECHARGE     =           0.0000
               GW ET     =           0.0000                 GW ET     =           0.0000
     SURFACE LEAKAGE     =           0.0000       SURFACE LEAKAGE     =           0.0000
           AG WELLS      =           0.0000             AG WELLS      =           0.0000

                TOTAL IN =   213063792.0000                  TOTAL IN =          24.2038

          OUT:                                     OUT:
          ----                                     ----
             STORAGE     =    37844120.0000               STORAGE     =           1.6681
       CONSTANT HEAD     =           0.0000         CONSTANT HEAD     =           0.0000
     HEAD DEP BOUNDS     =     4658637.0000       HEAD DEP BOUNDS     =           0.2933
      STREAM LEAKAGE     =   168261312.0000        STREAM LEAKAGE     =          13.2610
        UZF RECHARGE     =           0.0000          UZF RECHARGE     =           0.0000
               GW ET     =     1517575.6250                 GW ET     =       4.2553E-02
     SURFACE LEAKAGE     =           0.0000       SURFACE LEAKAGE     =           0.0000
           AG WELLS      =      783669.9375             AG WELLS      =           8.9392

               TOTAL OUT =   213065296.0000                 TOTAL OUT =          24.2042

                IN - OUT =       -1504.0000                  IN - OUT =      -4.1580E-04

     PERCENT DISCREPANCY =          -0.00         PERCENT DISCREPANCY =          -0.00






         TIME SUMMARY AT END OF TIME STEP    1 IN STRESS PERIOD    8
                    SECONDS     MINUTES      HOURS       DAYS        YEARS
                    -----------------------------------------------------------
   TIME STEP LENGTH  87667.      1461.1      24.352      1.0147     2.77799E-03
 STRESS PERIOD TIME  87667.      1461.1      24.352      1.0147     2.77799E-03
         TOTAL TIME 1.59541E+07 2.65901E+05  4431.7      184.65     0.50555    
1
 
 SOLVING FOR HEAD 
                                                   Max.-Head-Change                         Max.-Flux-Residual
  Residual-Control   Outer-Iter.   Inner-Iter.     Column Row Layer    Maximum-Head-Change  Column Row Layer    Maximum-Flux-Residual          L2-NORM 
          0                 1           2             4    7     1      -0.2710083298E-01       4    7    1        -0.1416686256E+01      0.3527055098E+01
          0                 2           2             2   13     1      -0.1875765635E-01       4   13    1        -0.1198507117E+01      0.2055891163E+01
          0                 3           2             4   13     1      -0.2891181681E-02       4   13    1        -0.1714980467E+00      0.2402838003E+00
          0                 4           2             4   13     1       0.1942586593E-03       4   13    1         0.1184427267E-01      0.1497942965E-01
          0                 5           1             4    7     1      -0.5182882597E-04       4    7    1        -0.2861382532E-02      0.7032385697E-02

    ------------------------------------------------
       NWT REQUIRED            5 OUTER ITERATIONS 
       AND A TOTAL OF          9 INNER ITERATIONS.
    ------------------------------------------------

 NO OUTPUT CONTROL FOR STRESS PERIOD    8   TIME STEP    2
 
 SOLVING FOR HEAD 
                                                   Max.-Head-Change                         Max.-Flux-Residual
  Residual-Control   Outer-Iter.   Inner-Iter.     Column Row Layer    Maximum-Head-Change  Column Row Layer    Maximum-Flux-Residual          L2-NORM 
          0                 1           2             4    7     1      -0.2691829627E-01       4    7    1        -0.1407748671E+01      0.3490384997E+01
          0                 2           2             4   13     1      -0.1966053431E-01       4   13    1        -0.1157507199E+01      0.2071922411E+01
          0                 3           2             3   13     1      -0.2480275770E-02       3   13    1        -0.1479627454E+00      0.2351405846E+00
          0                 4           2             3   13     1       0.1685660046E-03       3   13    1         0.1029563459E-01      0.1412194079E-01
          0                 5           1             4    7     1      -0.6969063945E-04       4    7    1        -0.3847501929E-02      0.9438125278E-02

    ------------------------------------------------
       NWT REQUIRED            5 OUTER ITERATIONS 
       AND A TOTAL OF          9 INNER ITERATIONS.
    ------------------------------------------------

 NO OUTPUT CONTROL FOR STRESS PERIOD    8   TIME STEP    3
 
 SOLVING FOR HEAD 
                                                   Max.-Head-Change                         Max.-Flux-Residual
  Residual-Control   Outer-Iter.   Inner-Iter.     Column Row Layer    Maximum-Head-Change  Column Row Layer    Maximum-Flux-Residual          L2-NORM 
          0                 1           2             4    7     1      -0.2672750172E-01       4    7    1        -0.1398339456E+01      0.3452870588E+01
          0                 2           2             4   13     1      -0.1984738658E-01       4   13    1        -0.1166512481E+01      0.2055651809E+01
          0                 3           2             7   13     1      -0.2016844293E-02       7   13    1        -0.1125641965E+00      0.1955235984E+00
          0                 4           2             7   13     1       0.1372752235E-03       7   13    1         0.7869955690E-02      0.1046250663E-01
          0                 5           1             4    7     1      -0.8680465919E-04       4    7    1        -0.4789723931E-02      0.1173533697E-01

    ------------------------------------------------
       NWT REQUIRED            5 OUTER ITERATIONS 
       AND A TOTAL OF          9 INNER ITERATIONS.
    ------------------------------------------------

 NO OUTPUT CONTROL FOR STRESS PERIOD    8   TIME STEP    4
 
 SOLVING FOR HEAD 
                                                   Max.-Head-Change                         Max.-Flux-Residual
  Residual-Control   Outer-Iter.   Inner-Iter.     Column Row Layer    Maximum-Head-Change  Column Row Layer    Maximum-Flux-Residual          L2-NORM 
          0                 1           2             4    7     1      -0.2654829040E-01       4    7    1        -0.1388781352E+01      0.3419180801E+01
          0                 2           2             4   13     1      -0.1998581153E-01       4   13    1        -0.1174676936E+01      0.2067963124E+01
          0                 3           2             7   13     1      -0.2007433227E-02       7   13    1        -0.1120402055E+00      0.1949830240E+00
          0                 4           2             7   13     1       0.1366345345E-03       7   13    1         0.7833270243E-02      0.1135479058E-01
          0                 5           1             4    7     1      -0.1027467140E-03       4    7    1        -0.5669380515E-02      0.1388875575E-01
          0                 6           1             4    7     1       0.4090388157E-05       4    7    1         0.2319913729E-03      0.5681867494E-03

    ------------------------------------------------
       NWT REQUIRED            6 OUTER ITERATIONS 
       AND A TOTAL OF         10 INNER ITERATIONS.
    ------------------------------------------------

 OUTPUT CONTROL FOR STRESS PERIOD    8   TIME STEP    5
    PRINT BUDGET
    SAVE BUDGET
 UBDSV1 SAVING "         STORAGE" ON UNIT 102 AT TIME STEP  5, STRESS PERIOD   8
 UBDSV2 SAVING "   CONSTANT HEAD" ON UNIT 102 AT TIME STEP  5, STRESS PERIOD   8
 UBDSV1 SAVING "FLOW RIGHT FACE " ON UNIT 102 AT TIME STEP  5, STRESS PERIOD   8
 UBDSV1 SAVING "FLOW FRONT FACE " ON UNIT 102 AT TIME STEP  5, STRESS PERIOD   8

  HEAD DEP BOUNDS   PERIOD    8   STEP     5
 BOUNDARY      1   LAYER   1   ROW    13   COL     1   RATE   -0.292275    
 BOUNDARY      2   LAYER   1   ROW    14   COL     9   RATE    0.285783    



 STREAM LISTING     PERIOD      8   STEP        5

 LAYER ROW COL. STREAM  RCH.  FLOW INTO     FLOW TO   FLOW OUT OF   OVRLND.     DIRECT     STREAM       STREAM     STREAM     STREAM   STREAMBED  STREAMBED
                SEG.NO.  NO.  STRM. RCH.    AQUIFER    STRM. RCH.    RUNOFF     PRECIP       ET          HEAD       DEPTH      WIDTH   CONDCTNC.   GRADIENT

   1    1    1     1     1    5.6250E+01  3.5875E-01   5.5891E+01  0.000E+00  0.000E+00  0.000E+00  1.09453E+03  1.479E+00  1.780E+01  8.010E-02  1.493E+00
   1    2    2     1     2    5.5891E+01  5.5550E-01   5.5336E+01  0.000E+00  0.000E+00  0.000E+00  1.08953E+03  1.473E+00  1.774E+01  1.242E-01  1.491E+00
   1    3    3     1     3    5.5336E+01  4.7368E-01   5.4862E+01  0.000E+00  0.000E+00  0.000E+00  1.08389E+03  1.467E+00  1.767E+01  1.060E-01  1.489E+00
   1    3    4     1     4    5.4862E+01  4.3613E-01   5.4426E+01  0.000E+00  0.000E+00  0.000E+00  1.07887E+03  1.461E+00  1.762E+01  9.777E-02  1.487E+00
   1    4    5     2     1    5.2426E+01  3.8056E-01   5.2046E+01  0.000E+00  0.000E+00  0.000E+00  1.07381E+03  1.879E+00  1.200E+01  7.800E-02  1.626E+00
   1    5    6     2     2    5.2046E+01  2.9230E-01   5.1753E+01  0.000E+00  0.000E+00  0.000E+00  1.06838E+03  1.872E+00  1.200E+01  6.000E-02  1.624E+00
   1    6    6     2     3    5.1753E+01  2.9192E-01   5.1461E+01  0.000E+00  0.000E+00  0.000E+00  1.06366E+03  1.865E+00  1.200E+01  6.000E-02  1.622E+00
   1    7    6     2     4    5.1461E+01  2.9154E-01   5.1170E+01  0.000E+00  0.000E+00  0.000E+00  1.05893E+03  1.859E+00  1.200E+01  6.000E-02  1.620E+00
   1    8    6     2     5    5.1170E+01  2.9116E-01   5.0879E+01  0.000E+00  0.000E+00  0.000E+00  1.05421E+03  1.853E+00  1.200E+01  6.000E-02  1.618E+00
   1    3    5     3     1    2.0000E+00  2.8252E-01   1.7175E+00  0.000E+00  0.000E+00  0.000E+00  1.07555E+03  1.909E+00  9.636E+00  7.227E-02  1.955E+00
   1    3    6     3     2    1.7175E+00  2.4905E-01   1.4684E+00  0.000E+00  0.000E+00  0.000E+00  1.07264E+03  1.727E+00  8.909E+00  6.682E-02  1.864E+00
   1    3    7     3     3    1.4684E+00  1.9718E-01   1.2712E+00  0.000E+00  0.000E+00  0.000E+00  1.06987E+03  1.555E+00  8.218E+00  5.547E-02  1.777E+00
   1    4    8     3     4    1.2712E+00  2.2567E-01   1.0456E+00  0.000E+00  0.000E+00  0.000E+00  1.06682E+03  1.364E+00  7.455E+00  6.709E-02  1.682E+00
   1    5    8     3     5    1.0456E+00  1.5790E-01   8.8768E-01  0.000E+00  0.000E+00  0.000E+00  1.06362E+03  1.164E+00  6.655E+00  4.991E-02  1.582E+00
   1    6    8     3     6    8.8768E-01  5.5980E-02   8.3170E-01  0.000E+00  0.000E+00  0.000E+00  1.06158E+03  1.036E+00  6.145E+00  1.844E-02  1.518E+00
   1    5   10     4     1    1.0000E+01  9.0919E-02   9.9091E+00  0.000E+00  0.000E+00  0.000E+00  1.07836E+03  6.368E-01  1.000E+01  2.500E-02  1.212E+00
   1    5    9     4     2    9.9091E+00  1.8158E-01   9.7275E+00  0.000E+00  0.000E+00  0.000E+00  1.07154E+03  6.315E-01  1.000E+01  5.000E-02  1.211E+00
   1    6    8     4     3    9.7275E+00  1.2689E-01   9.6006E+00  0.000E+00  0.000E+00  0.000E+00  1.06381E+03  6.256E-01  1.000E+01  3.500E-02  1.209E+00
   1    6    8     5     1    1.0432E+01  2.2686E-01   1.0205E+01  0.000E+00  0.000E+00  0.000E+00  1.05868E+03  6.790E-01  1.542E+01  6.166E-02  1.226E+00
   1    7    7     5     2    1.0205E+01  2.7894E-01   9.9265E+00  0.000E+00  0.000E+00  0.000E+00  1.05417E+03  6.732E-01  1.519E+01  7.594E-02  1.224E+00
   1    8    7     5     3    9.9265E+00  1.9221E-01   9.7343E+00  0.000E+00  0.000E+00  0.000E+00  1.04992E+03  6.676E-01  1.497E+01  5.241E-02  1.223E+00
   1    8    6     5     4    9.7343E+00  1.3577E-01   9.5985E+00  0.000E+00  0.000E+00  0.000E+00  1.04691E+03  6.637E-01  1.482E+01  3.706E-02  1.221E+00
   1    9    6     6     1    9.5985E+00  2.2097E-01   9.3776E+00  0.000E+00  0.000E+00  0.000E+00  1.04341E+03  6.828E-01  1.200E+01  6.000E-02  1.228E+00
   1   10    7     6     2    9.3776E+00  2.2039E-01   9.1572E+00  0.000E+00  0.000E+00  0.000E+00  1.03885E+03  6.732E-01  1.200E+01  6.000E-02  1.224E+00
   1   11    7     6     3    9.1572E+00  2.1981E-01   8.9374E+00  0.000E+00  0.000E+00  0.000E+00  1.03430E+03  6.636E-01  1.200E+01  6.000E-02  1.221E+00
   1   12    7     6     4    8.9374E+00  2.1923E-01   8.7181E+00  0.000E+00  0.000E+00  0.000E+00  1.02974E+03  6.539E-01  1.200E+01  6.000E-02  1.218E+00
   1   13    7     6     5    8.7181E+00 -1.4176E-01   8.8599E+00  0.000E+00  0.000E+00  0.000E+00  1.02656E+03  6.521E-01  1.200E+01  2.400E-01 -1.969E-01
   1   14    9     7     1    1.5000E+02  1.3362E+00   1.4866E+02  0.000E+00  0.000E+00  0.000E+00  1.03987E+03  2.288E+00  5.529E+01  5.593E-01  7.963E-01
   1   13    8     7     2    1.4866E+02  1.8186E+00   1.4685E+02  0.000E+00  0.000E+00  0.000E+00  1.03478E+03  2.279E+00  5.526E+01  6.148E-01  9.860E-01
   1   13    7     7     3    1.4685E+02  1.4175E+00   1.4543E+02  0.000E+00  0.000E+00  0.000E+00  1.02969E+03  2.271E+00  5.522E+01  5.585E-01  8.461E-01
   1   13    6     8     1    1.5429E+02  7.7199E-01   1.5352E+02  0.000E+00  0.000E+00  0.000E+00  1.02472E+03  2.844E+00  4.124E+01  4.202E-01  6.123E-01
   1   13    5     8     2    1.5352E+02  4.9036E-02   1.5347E+02  0.000E+00  0.000E+00  0.000E+00  1.01847E+03  2.841E+00  4.120E+01  4.198E-01  3.893E-02
   1   13    4     8     3    1.5347E+02 -3.0891E+00   1.5656E+02  0.000E+00  0.000E+00  0.000E+00  1.01223E+03  2.852E+00  4.135E+01  4.214E+00 -2.444E-01
   1   13    3     8     4    1.5656E+02 -4.1290E+00   1.6068E+02  0.000E+00  0.000E+00  0.000E+00  1.00600E+03  2.876E+00  4.171E+01  4.250E+00 -3.238E-01
   1   13    2     8     5    1.6068E+02 -3.0882E+00   1.6377E+02  0.000E+00  0.000E+00  0.000E+00  9.99776E+02  2.901E+00  4.206E+01  4.286E+00 -2.402E-01
   1   13    1     8     6    1.6377E+02 -2.3226E+00   1.6610E+02  0.000E+00  0.000E+00  0.000E+00  9.94794E+02  2.919E+00  4.232E+01  2.588E+00 -2.992E-01
   1    8    6     9     1    5.0879E+01  0.0000E+00   5.0879E+01  0.000E+00  0.000E+00  0.000E+00  1.08476E+03  6.014E+00  4.000E+00  0.000E+00  3.005E+00
   1    8    5     9     2    5.0879E+01  0.0000E+00   5.0879E+01  0.000E+00  0.000E+00  0.000E+00  1.08426E+03  6.014E+00  4.000E+00  0.000E+00  3.005E+00



 UBDSV3 SAVING "           GW ET" ON UNIT  61 AT TIME STEP  5, STRESS PERIOD   8
 UBDSV3 SAVING "    UZF RECHARGE" ON UNIT  61 AT TIME STEP  5, STRESS PERIOD   8
 UBDSV3 SAVING " SURFACE LEAKAGE" ON UNIT  61 AT TIME STEP  5, STRESS PERIOD   8
 UBDSV3 SAVING "       HORT+DUNN" ON UNIT  61 AT TIME STEP  5, STRESS PERIOD   8
 UBDSV3 SAVING "  STORAGE CHANGE" ON UNIT  61 AT TIME STEP  5, STRESS PERIOD   8


UNSATURATED ZONE PACKAGE VOLUMETRIC BUDGET FOR  TIME STEP     5 STRESS PERIOD    8
  ------------------------------------------------------------------------------



     CUMULATIVE VOLUMES      L**3       RATES FOR THIS TIME STEP      L**3/T
     ------------------                 ------------------------

           IN:                                      IN:
           ---                                      ---
        INFILTRATION =   184290947.1433          INFILTRATION =          64.2425

          OUT:                                     OUT:
          ----                                     ----
              UZF ET =   164412574.1323                UZF ET =          64.1075
        UZF RECHARGE =       73224.0000          UZF RECHARGE =       0.0000E+00

            IN - OUT =    19805149.0110              IN - OUT =           0.1350

          STORAGE:                                 STORAGE:
          --------                                 --------
      STORAGE CHANGE =    19805147.6510        STORAGE CHANGE =           0.1350

 PERCENT DISCREPANCY IS DIFFERENCE BETWEEN IN-OUT MINUS CHANGE IN STORAGE
 DIVIDED BY THE AVERAGE OF IN AND OUT TIMES 100

 PERCENT DISCREPANCY =           0.00     PERCENT DISCREPANCY =           0.00






 

            AG WELLS      PERIOD    8   STEP   5
 AG WELL      1   LAYER   1   ROW     6   COL     4   RATE    -1.49255    
 AG WELL      2   LAYER   1   ROW     6   COL     5   RATE    -1.49255    
 AG WELL      3   LAYER   1   ROW     7   COL     4   RATE    -1.49255    
 AG WELL      4   LAYER   1   ROW     7   COL     5   RATE    -1.49255    
 AG WELL      5   LAYER   1   ROW     8   COL     4   RATE    -1.49255    
 AG WELL      6   LAYER   1   ROW     8   COL     5   RATE    -1.49255    
 
 

   DIVERSION SEGMENTS     PERIOD    8   STEP   5
 SEGMENT      9   RATE     50.8787    
 
 

        SW IRRIGATION     PERIOD    8   STEP   5
 SEGMENT      9   ROW     6   COL     4   RATE     8.47995    
 SEGMENT      9   ROW     6   COL     5   RATE     8.47995    
 SEGMENT      9   ROW     7   COL     4   RATE     8.47995    
 SEGMENT      9   ROW     7   COL     5   RATE     8.47995    
 SEGMENT      9   ROW     8   COL     4   RATE     8.47995    
 SEGMENT      9   ROW     8   COL     5   RATE     8.47995    
 
 

        GW IRRIGATION     PERIOD    8   STEP   5
 AG WELL      1   ROW     6   COL     4   RATE     1.49255    
 AG WELL      2   ROW     6   COL     5   RATE     1.49255    
 AG WELL      3   ROW     7   COL     4   RATE     1.49255    
 AG WELL      4   ROW     7   COL     5   RATE     1.49255    
 AG WELL      5   ROW     8   COL     4   RATE     1.49255    
 AG WELL      6   ROW     8   COL     5   RATE     1.49255    
 
1
  VOLUMETRIC BUDGET FOR ENTIRE MODEL AT END OF TIME STEP    5, STRESS PERIOD   8
  ------------------------------------------------------------------------------

     CUMULATIVE VOLUMES      L**3       RATES FOR THIS TIME STEP      L**3/T
     ------------------                 ------------------------

           IN:                                      IN:
           ---                                      ---
               AG WELLS  =     3924010.0000                 AG WELLS  =           8.9553
      DIVERSION SEGMENTS =   108809216.0000        DIVERSION SEGMENTS =          50.8787
           GW IRRIGATION =           0.0000             GW IRRIGATION =           0.0000
           SW IRRIGATION =           0.0000             SW IRRIGATION =           0.0000
        SYSTEM LOSSES GW =           0.0000          SYSTEM LOSSES GW =           0.0000
        SYSTEM LOSSES SW =           0.0000          SYSTEM LOSSES SW =           0.0000

                TOTAL IN =   112733224.0000                  TOTAL IN =          59.8340

          OUT:                                     OUT:
          ----                                     ----
               AG WELLS  =           0.0000                 AG WELLS  =           0.0000
      DIVERSION SEGMENTS =           0.0000        DIVERSION SEGMENTS =           0.0000
           GW IRRIGATION =     3924010.0000             GW IRRIGATION =           8.9553
           SW IRRIGATION =   108811384.0000             SW IRRIGATION =          50.8797
        SYSTEM LOSSES GW =           0.0000          SYSTEM LOSSES GW =           0.0000
        SYSTEM LOSSES SW =           0.0000          SYSTEM LOSSES SW =           0.0000

               TOTAL OUT =   112735392.0000                 TOTAL OUT =          59.8350

                IN - OUT =       -2168.0000                  IN - OUT =      -1.0147E-03

     PERCENT DISCREPANCY =          -0.00         PERCENT DISCREPANCY =          -0.00



1
  VOLUMETRIC BUDGET FOR ENTIRE MODEL AT END OF TIME STEP    5, STRESS PERIOD   8
  ------------------------------------------------------------------------------

     CUMULATIVE VOLUMES      L**3       RATES FOR THIS TIME STEP      L**3/T
     ------------------                 ------------------------

           IN:                                      IN:
           ---                                      ---
             STORAGE     =    16874654.0000               STORAGE     =          11.2220
       CONSTANT HEAD     =           0.0000         CONSTANT HEAD     =           0.0000
     HEAD DEP BOUNDS     =     4658959.0000       HEAD DEP BOUNDS     =           0.2858
      STREAM LEAKAGE     =   199790592.0000        STREAM LEAKAGE     =          12.0467
        UZF RECHARGE     =       73223.9531          UZF RECHARGE     =           0.0000
               GW ET     =           0.0000                 GW ET     =           0.0000
     SURFACE LEAKAGE     =           0.0000       SURFACE LEAKAGE     =           0.0000
           AG WELLS      =           0.0000             AG WELLS      =           0.0000

                TOTAL IN =   221397424.0000                  TOTAL IN =          23.5544

          OUT:                                     OUT:
          ----                                     ----
             STORAGE     =    38395884.0000               STORAGE     =           1.5362
       CONSTANT HEAD     =           0.0000         CONSTANT HEAD     =           0.0000
     HEAD DEP BOUNDS     =     4761257.0000       HEAD DEP BOUNDS     =           0.2923
      STREAM LEAKAGE     =   172799952.0000        STREAM LEAKAGE     =          12.7706
        UZF RECHARGE     =           0.0000          UZF RECHARGE     =           0.0000
               GW ET     =     1517575.6250                 GW ET     =           0.0000
     SURFACE LEAKAGE     =           0.0000       SURFACE LEAKAGE     =           0.0000
           AG WELLS      =     3924010.0000             AG WELLS      =           8.9553

               TOTAL OUT =   221398672.0000                 TOTAL OUT =          23.5544

                IN - OUT =       -1248.0000                  IN - OUT =      -1.1444E-05

     PERCENT DISCREPANCY =          -0.00         PERCENT DISCREPANCY =          -0.00






         TIME SUMMARY AT END OF TIME STEP    5 IN STRESS PERIOD    8
                    SECONDS     MINUTES      HOURS       DAYS        YEARS
                    -----------------------------------------------------------
   TIME STEP LENGTH  87667.      1461.1      24.352      1.0147     2.77799E-03
 STRESS PERIOD TIME 4.38333E+05  7305.6      121.76      5.0733     1.38899E-02
         TOTAL TIME 1.63048E+07 2.71746E+05  4529.1      188.71     0.51667    
1
 
 SOLVING FOR HEAD 
                                                   Max.-Head-Change                         Max.-Flux-Residual
  Residual-Control   Outer-Iter.   Inner-Iter.     Column Row Layer    Maximum-Head-Change  Column Row Layer    Maximum-Flux-Residual          L2-NORM 
          0                 1           2             4    7     1      -0.2635411350E-01       4    7    1        -0.1379154049E+01      0.3388764198E+01
          0                 2           2             4   13     1      -0.2011144247E-01       4   13    1        -0.1182084470E+01      0.2079326650E+01
          0                 3           2             7   13     1      -0.1998294224E-02       7   13    1        -0.1115313636E+00      0.1944376119E+00
          0                 4           2             7   13     1       0.1360128074E-03       7   13    1         0.7797675405E-02      0.1258526334E-01
          0                 5           2             4    7     1      -0.1174547402E-03       4    7    1        -0.6480942636E-02      0.1587574028E-01
          0                 6           1             4    7     1       0.4675919008E-05       4    7    1         0.2652005242E-03      0.6495142491E-03

    ------------------------------------------------
       NWT REQUIRED            6 OUTER ITERATIONS 
       AND A TOTAL OF         11 INNER ITERATIONS.
    ------------------------------------------------

 NO OUTPUT CONTROL FOR STRESS PERIOD    8   TIME STEP    6
 
 SOLVING FOR HEAD 
                                                   Max.-Head-Change                         Max.-Flux-Residual
  Residual-Control   Outer-Iter.   Inner-Iter.     Column Row Layer    Maximum-Head-Change  Column Row Layer    Maximum-Flux-Residual          L2-NORM 
          0                 1           2             4    7     1      -0.2615206118E-01       4    7    1        -0.1369071008E+01      0.3360958446E+01
          0                 2           2             4   13     1      -0.2022547973E-01       4   13    1        -0.1188806295E+01      0.2089830908E+01
          0                 3           2             7   13     1      -0.1989416312E-02       7   13    1        -0.1110370659E+00      0.1938881478E+00
          0                 4           2             7   13     1       0.1354089046E-03       7   13    1         0.7763099395E-02      0.1416869040E-01
          0                 5           2             4    7     1      -0.1307527739E-03       4    7    1        -0.7214703024E-02      0.1767232905E-01
          0                 6           1             4    7     1       0.5205319243E-05       4    7    1         0.2952260593E-03      0.7230432125E-03

    ------------------------------------------------
       NWT REQUIRED            6 OUTER ITERATIONS 
       AND A TOTAL OF         11 INNER ITERATIONS.
    ------------------------------------------------

 NO OUTPUT CONTROL FOR STRESS PERIOD    8   TIME STEP    7
 
 SOLVING FOR HEAD 
                                                   Max.-Head-Change                         Max.-Flux-Residual
  Residual-Control   Outer-Iter.   Inner-Iter.     Column Row Layer    Maximum-Head-Change  Column Row Layer    Maximum-Flux-Residual          L2-NORM 
          0                 1           2             4    7     1      -0.2594270693E-01       4    7    1        -0.1358564033E+01      0.3335367836E+01
          0                 2           2             4   13     1      -0.2032912983E-01       4   13    1        -0.1194913909E+01      0.2099552390E+01
          0                 3           2             7   13     1      -0.1980791001E-02       7   13    1        -0.1105568304E+00      0.1933393830E+00
          0                 4           2             7   13     1       0.1348234568E-03       7   13    1         0.7729580519E-02      0.1613826263E-01
          0                 5           2             4    7     1      -0.1418701926E-03       4    7    1        -0.7828140568E-02      0.1917433566E-01
          0                 6           1             4    7     1       0.5647907460E-05       4    7    1         0.3203279307E-03      0.7845161453E-03

    ------------------------------------------------
       NWT REQUIRED            6 OUTER ITERATIONS 
       AND A TOTAL OF         11 INNER ITERATIONS.
    ------------------------------------------------

 NO OUTPUT CONTROL FOR STRESS PERIOD    8   TIME STEP    8
 
 SOLVING FOR HEAD 
                                                   Max.-Head-Change                         Max.-Flux-Residual
  Residual-Control   Outer-Iter.   Inner-Iter.     Column Row Layer    Maximum-Head-Change  Column Row Layer    Maximum-Flux-Residual          L2-NORM 
          0                 1           2             4    7     1      -0.2572715716E-01       4    7    1        -0.1347694058E+01      0.3311673655E+01
          0                 2           2             4   13     1      -0.2042333803E-01       4   13    1        -0.1200463324E+01      0.2108547639E+01
          0                 3           2             7   13     1      -0.1972403439E-02       7   13    1        -0.1100898321E+00      0.1927929144E+00
          0                 4           2             7   13     1       0.1342509490E-03       7   13    1         0.7696804365E-02      0.1854397614E-01
          0                 5           2             4    7     1      -0.1503657561E-03       4    7    1        -0.8296908725E-02      0.2032208308E-01
          0                 6           1             4    7     1       0.5986119225E-05       4    7    1         0.3395099498E-03      0.8314893136E-03

    ------------------------------------------------
       NWT REQUIRED            6 OUTER ITERATIONS 
       AND A TOTAL OF         11 INNER ITERATIONS.
    ------------------------------------------------

 NO OUTPUT CONTROL FOR STRESS PERIOD    8   TIME STEP    9
 
 SOLVING FOR HEAD 
                                                   Max.-Head-Change                         Max.-Flux-Residual
  Residual-Control   Outer-Iter.   Inner-Iter.     Column Row Layer    Maximum-Head-Change  Column Row Layer    Maximum-Flux-Residual          L2-NORM 
          0                 1           2             4    7     1      -0.2550590822E-01       4    7    1        -0.1336488737E+01      0.3289584425E+01
          0                 2           2             4   13     1      -0.2050900113E-01       4   13    1        -0.1205507838E+01      0.2116844278E+01
          0                 3           2             7   13     1      -0.1964260378E-02       7   13    1        -0.1096364491E+00      0.1922238366E+00
          0                 4           2             4    7     1      -0.1417554881E-03       5    6    1        -0.7886922833E-02      0.2147840544E-01
          0                 5           2             4    7     1      -0.1553785140E-03       4    7    1        -0.8573437412E-02      0.2099902415E-01
          0                 6           1             4    7     1       0.6185679014E-05       4    7    1         0.3508255272E-03      0.8591918896E-03

    ------------------------------------------------
       NWT REQUIRED            6 OUTER ITERATIONS 
       AND A TOTAL OF         11 INNER ITERATIONS.
    ------------------------------------------------

 OUTPUT CONTROL FOR STRESS PERIOD    8   TIME STEP   10
    PRINT BUDGET
    SAVE BUDGET
 UBDSV1 SAVING "         STORAGE" ON UNIT 102 AT TIME STEP 10, STRESS PERIOD   8
 UBDSV2 SAVING "   CONSTANT HEAD" ON UNIT 102 AT TIME STEP 10, STRESS PERIOD   8
 UBDSV1 SAVING "FLOW RIGHT FACE " ON UNIT 102 AT TIME STEP 10, STRESS PERIOD   8
 UBDSV1 SAVING "FLOW FRONT FACE " ON UNIT 102 AT TIME STEP 10, STRESS PERIOD   8

  HEAD DEP BOUNDS   PERIOD    8   STEP    10
 BOUNDARY      1   LAYER   1   ROW    13   COL     1   RATE   -0.291217    
 BOUNDARY      2   LAYER   1   ROW    14   COL     9   RATE    0.285783    



 STREAM LISTING     PERIOD      8   STEP       10

 LAYER ROW COL. STREAM  RCH.  FLOW INTO     FLOW TO   FLOW OUT OF   OVRLND.     DIRECT     STREAM       STREAM     STREAM     STREAM   STREAMBED  STREAMBED
                SEG.NO.  NO.  STRM. RCH.    AQUIFER    STRM. RCH.    RUNOFF     PRECIP       ET          HEAD       DEPTH      WIDTH   CONDCTNC.   GRADIENT

   1    1    1     1     1    5.6250E+01  3.5875E-01   5.5891E+01  0.000E+00  0.000E+00  0.000E+00  1.09453E+03  1.479E+00  1.780E+01  8.010E-02  1.493E+00
   1    2    2     1     2    5.5891E+01  5.5550E-01   5.5336E+01  0.000E+00  0.000E+00  0.000E+00  1.08953E+03  1.473E+00  1.774E+01  1.242E-01  1.491E+00
   1    3    3     1     3    5.5336E+01  4.7368E-01   5.4862E+01  0.000E+00  0.000E+00  0.000E+00  1.08389E+03  1.467E+00  1.767E+01  1.060E-01  1.489E+00
   1    3    4     1     4    5.4862E+01  4.3613E-01   5.4426E+01  0.000E+00  0.000E+00  0.000E+00  1.07887E+03  1.461E+00  1.762E+01  9.777E-02  1.487E+00
   1    4    5     2     1    5.2426E+01  3.8056E-01   5.2046E+01  0.000E+00  0.000E+00  0.000E+00  1.07381E+03  1.879E+00  1.200E+01  7.800E-02  1.626E+00
   1    5    6     2     2    5.2046E+01  2.9230E-01   5.1753E+01  0.000E+00  0.000E+00  0.000E+00  1.06838E+03  1.872E+00  1.200E+01  6.000E-02  1.624E+00
   1    6    6     2     3    5.1753E+01  2.9192E-01   5.1461E+01  0.000E+00  0.000E+00  0.000E+00  1.06366E+03  1.865E+00  1.200E+01  6.000E-02  1.622E+00
   1    7    6     2     4    5.1461E+01  2.9154E-01   5.1170E+01  0.000E+00  0.000E+00  0.000E+00  1.05893E+03  1.859E+00  1.200E+01  6.000E-02  1.620E+00
   1    8    6     2     5    5.1170E+01  2.9116E-01   5.0879E+01  0.000E+00  0.000E+00  0.000E+00  1.05421E+03  1.853E+00  1.200E+01  6.000E-02  1.618E+00
   1    3    5     3     1    2.0000E+00  2.8252E-01   1.7175E+00  0.000E+00  0.000E+00  0.000E+00  1.07555E+03  1.909E+00  9.636E+00  7.227E-02  1.955E+00
   1    3    6     3     2    1.7175E+00  2.4905E-01   1.4684E+00  0.000E+00  0.000E+00  0.000E+00  1.07264E+03  1.727E+00  8.909E+00  6.682E-02  1.864E+00
   1    3    7     3     3    1.4684E+00  1.9718E-01   1.2712E+00  0.000E+00  0.000E+00  0.000E+00  1.06987E+03  1.555E+00  8.218E+00  5.547E-02  1.777E+00
   1    4    8     3     4    1.2712E+00  2.2567E-01   1.0456E+00  0.000E+00  0.000E+00  0.000E+00  1.06682E+03  1.364E+00  7.455E+00  6.709E-02  1.682E+00
   1    5    8     3     5    1.0456E+00  1.5790E-01   8.8768E-01  0.000E+00  0.000E+00  0.000E+00  1.06362E+03  1.164E+00  6.655E+00  4.991E-02  1.582E+00
   1    6    8     3     6    8.8768E-01  5.5980E-02   8.3170E-01  0.000E+00  0.000E+00  0.000E+00  1.06158E+03  1.036E+00  6.145E+00  1.844E-02  1.518E+00
   1    5   10     4     1    1.0000E+01  9.0919E-02   9.9091E+00  0.000E+00  0.000E+00  0.000E+00  1.07836E+03  6.368E-01  1.000E+01  2.500E-02  1.212E+00
   1    5    9     4     2    9.9091E+00  1.8158E-01   9.7275E+00  0.000E+00  0.000E+00  0.000E+00  1.07154E+03  6.315E-01  1.000E+01  5.000E-02  1.211E+00
   1    6    8     4     3    9.7275E+00  1.2689E-01   9.6006E+00  0.000E+00  0.000E+00  0.000E+00  1.06381E+03  6.256E-01  1.000E+01  3.500E-02  1.209E+00
   1    6    8     5     1    1.0432E+01  2.2686E-01   1.0205E+01  0.000E+00  0.000E+00  0.000E+00  1.05868E+03  6.790E-01  1.542E+01  6.166E-02  1.226E+00
   1    7    7     5     2    1.0205E+01  2.7894E-01   9.9265E+00  0.000E+00  0.000E+00  0.000E+00  1.05417E+03  6.732E-01  1.519E+01  7.594E-02  1.224E+00
   1    8    7     5     3    9.9265E+00  1.9221E-01   9.7343E+00  0.000E+00  0.000E+00  0.000E+00  1.04992E+03  6.676E-01  1.497E+01  5.241E-02  1.223E+00
   1    8    6     5     4    9.7343E+00  1.3577E-01   9.5985E+00  0.000E+00  0.000E+00  0.000E+00  1.04691E+03  6.637E-01  1.482E+01  3.706E-02  1.221E+00
   1    9    6     6     1    9.5985E+00  2.2097E-01   9.3776E+00  0.000E+00  0.000E+00  0.000E+00  1.04341E+03  6.828E-01  1.200E+01  6.000E-02  1.228E+00
   1   10    7     6     2    9.3776E+00  2.2039E-01   9.1572E+00  0.000E+00  0.000E+00  0.000E+00  1.03885E+03  6.732E-01  1.200E+01  6.000E-02  1.224E+00
   1   11    7     6     3    9.1572E+00  2.1981E-01   8.9374E+00  0.000E+00  0.000E+00  0.000E+00  1.03430E+03  6.636E-01  1.200E+01  6.000E-02  1.221E+00
   1   12    7     6     4    8.9374E+00  2.1923E-01   8.7181E+00  0.000E+00  0.000E+00  0.000E+00  1.02974E+03  6.539E-01  1.200E+01  6.000E-02  1.218E+00
   1   13    7     6     5    8.7181E+00 -1.3939E-01   8.8575E+00  0.000E+00  0.000E+00  0.000E+00  1.02656E+03  6.521E-01  1.200E+01  2.400E-01 -1.936E-01
   1   14    9     7     1    1.5000E+02  1.3362E+00   1.4866E+02  0.000E+00  0.000E+00  0.000E+00  1.03987E+03  2.288E+00  5.529E+01  5.593E-01  7.963E-01
   1   13    8     7     2    1.4866E+02  1.8186E+00   1.4685E+02  0.000E+00  0.000E+00  0.000E+00  1.03478E+03  2.279E+00  5.526E+01  6.148E-01  9.860E-01
   1   13    7     7     3    1.4685E+02  1.4230E+00   1.4542E+02  0.000E+00  0.000E+00  0.000E+00  1.02969E+03  2.271E+00  5.522E+01  5.585E-01  8.494E-01
   1   13    6     8     1    1.5428E+02  7.7682E-01   1.5350E+02  0.000E+00  0.000E+00  0.000E+00  1.02472E+03  2.844E+00  4.124E+01  4.202E-01  6.162E-01
   1   13    5     8     2    1.5350E+02  5.3524E-02   1.5345E+02  0.000E+00  0.000E+00  0.000E+00  1.01847E+03  2.841E+00  4.120E+01  4.198E-01  4.250E-02
   1   13    4     8     3    1.5345E+02 -2.9710E+00   1.5642E+02  0.000E+00  0.000E+00  0.000E+00  1.01223E+03  2.851E+00  4.134E+01  4.213E+00 -2.351E-01
   1   13    3     8     4    1.5642E+02 -4.0223E+00   1.6044E+02  0.000E+00  0.000E+00  0.000E+00  1.00600E+03  2.875E+00  4.169E+01  4.248E+00 -3.156E-01
   1   13    2     8     5    1.6044E+02 -2.9440E+00   1.6339E+02  0.000E+00  0.000E+00  0.000E+00  9.99774E+02  2.899E+00  4.203E+01  4.283E+00 -2.291E-01
   1   13    1     8     6    1.6339E+02 -2.2556E+00   1.6564E+02  0.000E+00  0.000E+00  0.000E+00  9.94791E+02  2.916E+00  4.228E+01  2.585E+00 -2.908E-01
   1    8    6     9     1    5.0879E+01  0.0000E+00   5.0879E+01  0.000E+00  0.000E+00  0.000E+00  1.08476E+03  6.014E+00  4.000E+00  0.000E+00  3.005E+00
   1    8    5     9     2    5.0879E+01  0.0000E+00   5.0879E+01  0.000E+00  0.000E+00  0.000E+00  1.08426E+03  6.014E+00  4.000E+00  0.000E+00  3.005E+00



 UBDSV3 SAVING "           GW ET" ON UNIT  61 AT TIME STEP 10, STRESS PERIOD   8
 UBDSV3 SAVING "    UZF RECHARGE" ON UNIT  61 AT TIME STEP 10, STRESS PERIOD   8
 UBDSV3 SAVING " SURFACE LEAKAGE" ON UNIT  61 AT TIME STEP 10, STRESS PERIOD   8
 UBDSV3 SAVING "       HORT+DUNN" ON UNIT  61 AT TIME STEP 10, STRESS PERIOD   8
 UBDSV3 SAVING "  STORAGE CHANGE" ON UNIT  61 AT TIME STEP 10, STRESS PERIOD   8


UNSATURATED ZONE PACKAGE VOLUMETRIC BUDGET FOR  TIME STEP    10 STRESS PERIOD    8
  ------------------------------------------------------------------------------



     CUMULATIVE VOLUMES      L**3       RATES FOR THIS TIME STEP      L**3/T
     ------------------                 ------------------------

           IN:                                      IN:
           ---                                      ---
        INFILTRATION =   212450579.3650          INFILTRATION =          64.2425

          OUT:                                     OUT:
          ----                                     ----
              UZF ET =   192513026.7290                UZF ET =          64.1075
        UZF RECHARGE =       73224.0000          UZF RECHARGE =       0.0000E+00

            IN - OUT =    19864328.6360              IN - OUT =           0.1350

          STORAGE:                                 STORAGE:
          --------                                 --------
      STORAGE CHANGE =    19864326.7575        STORAGE CHANGE =           0.1350

 PERCENT DISCREPANCY IS DIFFERENCE BETWEEN IN-OUT MINUS CHANGE IN STORAGE
 DIVIDED BY THE AVERAGE OF IN AND OUT TIMES 100

 PERCENT DISCREPANCY =           0.00     PERCENT DISCREPANCY =           0.00






 

            AG WELLS      PERIOD    8   STEP  10
 AG WELL      1   LAYER   1   ROW     6   COL     4   RATE    -1.49256    
 AG WELL      2   LAYER   1   ROW     6   COL     5   RATE    -1.49256    
 AG WELL      3   LAYER   1   ROW     7   COL     4   RATE    -1.49256    
 AG WELL      4   LAYER   1   ROW     7   COL     5   RATE    -1.49256    
 AG WELL      5   LAYER   1   ROW     8   COL     4   RATE    -1.49256    
 AG WELL      6   LAYER   1   ROW     8   COL     5   RATE    -1.49256    
 
 

   DIVERSION SEGMENTS     PERIOD    8   STEP  10
 SEGMENT      9   RATE     50.8787    
 
 

        SW IRRIGATION     PERIOD    8   STEP  10
 SEGMENT      9   ROW     6   COL     4   RATE     8.47995    
 SEGMENT      9   ROW     6   COL     5   RATE     8.47995    
 SEGMENT      9   ROW     7   COL     4   RATE     8.47995    
 SEGMENT      9   ROW     7   COL     5   RATE     8.47995    
 SEGMENT      9   ROW     8   COL     4   RATE     8.47995    
 SEGMENT      9   ROW     8   COL     5   RATE     8.47995    
 
 

        GW IRRIGATION     PERIOD    8   STEP  10
 AG WELL      1   ROW     6   COL     4   RATE     1.49256    
 AG WELL      2   ROW     6   COL     5   RATE     1.49256    
 AG WELL      3   ROW     7   COL     4   RATE     1.49256    
 AG WELL      4   ROW     7   COL     5   RATE     1.49256    
 AG WELL      5   ROW     8   COL     4   RATE     1.49256    
 AG WELL      6   ROW     8   COL     5   RATE     1.49256    
 
1
  VOLUMETRIC BUDGET FOR ENTIRE MODEL AT END OF TIME STEP   10, STRESS PERIOD   8
  ------------------------------------------------------------------------------

     CUMULATIVE VOLUMES      L**3       RATES FOR THIS TIME STEP      L**3/T
     ------------------                 ------------------------

           IN:                                      IN:
           ---                                      ---
               AG WELLS  =     7849432.5000                 AG WELLS  =           8.9554
      DIVERSION SEGMENTS =   131111016.0000        DIVERSION SEGMENTS =          50.8787
           GW IRRIGATION =           0.0000             GW IRRIGATION =           0.0000
           SW IRRIGATION =           0.0000             SW IRRIGATION =           0.0000
        SYSTEM LOSSES GW =           0.0000          SYSTEM LOSSES GW =           0.0000
        SYSTEM LOSSES SW =           0.0000          SYSTEM LOSSES SW =           0.0000

                TOTAL IN =   138960448.0000                  TOTAL IN =          59.8340

          OUT:                                     OUT:
          ----                                     ----
               AG WELLS  =           0.0000                 AG WELLS  =           0.0000
      DIVERSION SEGMENTS =           0.0000        DIVERSION SEGMENTS =           0.0000
           GW IRRIGATION =     7849432.5000             GW IRRIGATION =           8.9554
           SW IRRIGATION =   131113624.0000             SW IRRIGATION =          50.8797
        SYSTEM LOSSES GW =           0.0000          SYSTEM LOSSES GW =           0.0000
        SYSTEM LOSSES SW =           0.0000          SYSTEM LOSSES SW =           0.0000

               TOTAL OUT =   138963056.0000                 TOTAL OUT =          59.8350

                IN - OUT =       -2608.0000                  IN - OUT =      -1.0147E-03

     PERCENT DISCREPANCY =          -0.00         PERCENT DISCREPANCY =          -0.00



1
  VOLUMETRIC BUDGET FOR ENTIRE MODEL AT END OF TIME STEP   10, STRESS PERIOD   8
  ------------------------------------------------------------------------------

     CUMULATIVE VOLUMES      L**3       RATES FOR THIS TIME STEP      L**3/T
     ------------------                 ------------------------

           IN:                                      IN:
           ---                                      ---
             STORAGE     =    21632328.0000               STORAGE     =          10.6291
       CONSTANT HEAD     =           0.0000         CONSTANT HEAD     =           0.0000
     HEAD DEP BOUNDS     =     4784226.5000       HEAD DEP BOUNDS     =           0.2858
      STREAM LEAKAGE     =   205074976.0000        STREAM LEAKAGE     =          12.0615
        UZF RECHARGE     =       73223.9531          UZF RECHARGE     =           0.0000
               GW ET     =           0.0000                 GW ET     =           0.0000
     SURFACE LEAKAGE     =           0.0000       SURFACE LEAKAGE     =           0.0000
           AG WELLS      =           0.0000             AG WELLS      =           0.0000

                TOTAL IN =   231564752.0000                  TOTAL IN =          22.9764

          OUT:                                     OUT:
          ----                                     ----
             STORAGE     =    39033144.0000               STORAGE     =           1.3975
       CONSTANT HEAD     =           0.0000         CONSTANT HEAD     =           0.0000
     HEAD DEP BOUNDS     =     4889085.0000       HEAD DEP BOUNDS     =           0.2912
      STREAM LEAKAGE     =   178276800.0000        STREAM LEAKAGE     =          12.3323
        UZF RECHARGE     =           0.0000          UZF RECHARGE     =           0.0000
               GW ET     =     1517575.6250                 GW ET     =           0.0000
     SURFACE LEAKAGE     =           0.0000       SURFACE LEAKAGE     =           0.0000
           AG WELLS      =     7849432.5000             AG WELLS      =           8.9554

               TOTAL OUT =   231566032.0000                 TOTAL OUT =          22.9764

                IN - OUT =       -1280.0000                  IN - OUT =      -2.0981E-05

     PERCENT DISCREPANCY =          -0.00         PERCENT DISCREPANCY =          -0.00






         TIME SUMMARY AT END OF TIME STEP   10 IN STRESS PERIOD    8
                    SECONDS     MINUTES      HOURS       DAYS        YEARS
                    -----------------------------------------------------------
   TIME STEP LENGTH  87667.      1461.1      24.352      1.0147     2.77799E-03
 STRESS PERIOD TIME 8.76667E+05  14611.      243.52      10.147     2.77799E-02
         TOTAL TIME 1.67431E+07 2.79052E+05  4650.9      193.79     0.53056    
1
 
 SOLVING FOR HEAD 
                                                   Max.-Head-Change                         Max.-Flux-Residual
  Residual-Control   Outer-Iter.   Inner-Iter.     Column Row Layer    Maximum-Head-Change  Column Row Layer    Maximum-Flux-Residual          L2-NORM 
          0                 1           2             4    7     1      -0.2528028813E-01       4    7    1        -0.1325007066E+01      0.3269016822E+01
          0                 2           2             4   13     1      -0.2058700303E-01       4   13    1        -0.1210099617E+01      0.2124577667E+01
          0                 3           2             7   13     1      -0.1956341641E-02       7   13    1        -0.1091955576E+00      0.1917115616E+00
          0                 4           2             4    7     1      -0.1713713890E-03       5    6    1        -0.9525219944E-02      0.2513613168E-01
          0                 5           2             4    7     1      -0.1552731467E-03       4    7    1        -0.8567622694E-02      0.2098452782E-01
          0                 6           1             4    7     1       0.6181484605E-05       4    7    1         0.3505876052E-03      0.8586010047E-03

    ------------------------------------------------
       NWT REQUIRED            6 OUTER ITERATIONS 
       AND A TOTAL OF         11 INNER ITERATIONS.
    ------------------------------------------------

 NO OUTPUT CONTROL FOR STRESS PERIOD    8   TIME STEP   11
 
 SOLVING FOR HEAD 
                                                   Max.-Head-Change                         Max.-Flux-Residual
  Residual-Control   Outer-Iter.   Inner-Iter.     Column Row Layer    Maximum-Head-Change  Column Row Layer    Maximum-Flux-Residual          L2-NORM 
          0                 1           2             4    7     1      -0.2505237204E-01       4    7    1        -0.1313378550E+01      0.3249904913E+01
          0                 2           2             4   13     1      -0.2065774014E-01       4   13    1        -0.1214262391E+01      0.2131693068E+01
          0                 3           2             7   13     1      -0.1948643854E-02       7   13    1        -0.1087673513E+00      0.1911785677E+00
          0                 4           2             4    7     1      -0.2078316620E-03       5    6    1        -0.1154073248E-01      0.2975597538E-01
          0                 5           2             4    7     1      -0.1480887600E-03       4    7    1        -0.8171206711E-02      0.2001337769E-01
          0                 6           1             4    7     1       0.5895471082E-05       4    7    1         0.3343662320E-03      0.8188794466E-03

    ------------------------------------------------
       NWT REQUIRED            6 OUTER ITERATIONS 
       AND A TOTAL OF         11 INNER ITERATIONS.
    ------------------------------------------------

 NO OUTPUT CONTROL FOR STRESS PERIOD    8   TIME STEP   12
 
 SOLVING FOR HEAD 
                                                   Max.-Head-Change                         Max.-Flux-Residual
  Residual-Control   Outer-Iter.   Inner-Iter.     Column Row Layer    Maximum-Head-Change  Column Row Layer    Maximum-Flux-Residual          L2-NORM 
          0                 1           2             4    7     1      -0.2481882591E-01       4    7    1        -0.1301426289E+01      0.3231557682E+01
          0                 2           2             4   13     1      -0.2072248616E-01       4   13    1        -0.1218071308E+01      0.2138312625E+01
          0                 3           2             7   13     1      -0.1941155124E-02       7   13    1        -0.1083503890E+00      0.1906536572E+00
          0                 4           2             4    7     1      -0.2549390066E-03       5    6    1        -0.1414333947E-01      0.3584798125E-01
          0                 5           2             4    7     1      -0.1298349300E-03       4    7    1        -0.7164008407E-02      0.1754639152E-01
          0                 6           1             4    7     1       0.5168779346E-05       4    7    1         0.2931516383E-03      0.7178972988E-03

    ------------------------------------------------
       NWT REQUIRED            6 OUTER ITERATIONS 
       AND A TOTAL OF         11 INNER ITERATIONS.
    ------------------------------------------------

 NO OUTPUT CONTROL FOR STRESS PERIOD    8   TIME STEP   13
 
 SOLVING FOR HEAD 
                                                   Max.-Head-Change                         Max.-Flux-Residual
  Residual-Control   Outer-Iter.   Inner-Iter.     Column Row Layer    Maximum-Head-Change  Column Row Layer    Maximum-Flux-Residual          L2-NORM 
          0                 1           2             4    7     1      -0.2458223187E-01       4    7    1        -0.1289287147E+01      0.3214055763E+01
          0                 2           2             4   13     1      -0.2078149737E-01       4   13    1        -0.1221541662E+01      0.2144445994E+01
          0                 3           2             7   13     1      -0.1933868494E-02       7   13    1        -0.1079446786E+00      0.1901375145E+00
          0                 4           2             4    7     1      -0.3195369010E-03       5    6    1        -0.1771067227E-01      0.4432839429E-01
          0                 5           1             4    7     1      -0.9329221880E-04       4    7    1        -0.5147679600E-02      0.1260830610E-01

    ------------------------------------------------
       NWT REQUIRED            5 OUTER ITERATIONS 
       AND A TOTAL OF          9 INNER ITERATIONS.
    ------------------------------------------------

 NO OUTPUT CONTROL FOR STRESS PERIOD    8   TIME STEP   14
 
 SOLVING FOR HEAD 
                                                   Max.-Head-Change                         Max.-Flux-Residual
  Residual-Control   Outer-Iter.   Inner-Iter.     Column Row Layer    Maximum-Head-Change  Column Row Layer    Maximum-Flux-Residual          L2-NORM 
          0                 1           2             4    7     1      -0.2434336662E-01       4    7    1        -0.1277003430E+01      0.3197293567E+01
          0                 2           2             4   13     1      -0.2083535478E-01       4   13    1        -0.1224707862E+01      0.2150134712E+01
          0                 3           2             7   13     1      -0.1926780120E-02       7   13    1        -0.1075500129E+00      0.1896323301E+00
          0                 4           2             4    7     1      -0.4161006759E-03       5    6    1        -0.2304148449E-01      0.5714739592E-01
          0                 5           1             4    7     1      -0.2349042408E-04       4    7    1        -0.1296207037E-02      0.3185579937E-02

    ------------------------------------------------
       NWT REQUIRED            5 OUTER ITERATIONS 
       AND A TOTAL OF          9 INNER ITERATIONS.
    ------------------------------------------------

 OUTPUT CONTROL FOR STRESS PERIOD    8   TIME STEP   15
    PRINT BUDGET
    SAVE BUDGET
 UBDSV1 SAVING "         STORAGE" ON UNIT 102 AT TIME STEP 15, STRESS PERIOD   8
 UBDSV2 SAVING "   CONSTANT HEAD" ON UNIT 102 AT TIME STEP 15, STRESS PERIOD   8
 UBDSV1 SAVING "FLOW RIGHT FACE " ON UNIT 102 AT TIME STEP 15, STRESS PERIOD   8
 UBDSV1 SAVING "FLOW FRONT FACE " ON UNIT 102 AT TIME STEP 15, STRESS PERIOD   8

  HEAD DEP BOUNDS   PERIOD    8   STEP    15
 BOUNDARY      1   LAYER   1   ROW    13   COL     1   RATE   -0.290360    
 BOUNDARY      2   LAYER   1   ROW    14   COL     9   RATE    0.285781    



 STREAM LISTING     PERIOD      8   STEP       15

 LAYER ROW COL. STREAM  RCH.  FLOW INTO     FLOW TO   FLOW OUT OF   OVRLND.     DIRECT     STREAM       STREAM     STREAM     STREAM   STREAMBED  STREAMBED
                SEG.NO.  NO.  STRM. RCH.    AQUIFER    STRM. RCH.    RUNOFF     PRECIP       ET          HEAD       DEPTH      WIDTH   CONDCTNC.   GRADIENT

   1    1    1     1     1    5.6250E+01  3.5874E-01   5.5891E+01  0.000E+00  0.000E+00  0.000E+00  1.09453E+03  1.479E+00  1.780E+01  8.010E-02  1.493E+00
   1    2    2     1     2    5.5891E+01  5.5550E-01   5.5335E+01  0.000E+00  0.000E+00  0.000E+00  1.08953E+03  1.473E+00  1.774E+01  1.242E-01  1.491E+00
   1    3    3     1     3    5.5335E+01  4.7368E-01   5.4862E+01  0.000E+00  0.000E+00  0.000E+00  1.08389E+03  1.467E+00  1.767E+01  1.060E-01  1.489E+00
   1    3    4     1     4    5.4862E+01  4.3613E-01   5.4426E+01  0.000E+00  0.000E+00  0.000E+00  1.07887E+03  1.461E+00  1.762E+01  9.777E-02  1.487E+00
   1    4    5     2     1    5.2426E+01  3.8056E-01   5.2045E+01  0.000E+00  0.000E+00  0.000E+00  1.07381E+03  1.879E+00  1.200E+01  7.800E-02  1.626E+00
   1    5    6     2     2    5.2045E+01  2.9230E-01   5.1753E+01  0.000E+00  0.000E+00  0.000E+00  1.06838E+03  1.872E+00  1.200E+01  6.000E-02  1.624E+00
   1    6    6     2     3    5.1753E+01  2.9192E-01   5.1461E+01  0.000E+00  0.000E+00  0.000E+00  1.06366E+03  1.865E+00  1.200E+01  6.000E-02  1.622E+00
   1    7    6     2     4    5.1461E+01  2.9154E-01   5.1169E+01  0.000E+00  0.000E+00  0.000E+00  1.05893E+03  1.859E+00  1.200E+01  6.000E-02  1.620E+00
   1    8    6     2     5    5.1169E+01  2.9116E-01   5.0878E+01  0.000E+00  0.000E+00  0.000E+00  1.05421E+03  1.853E+00  1.200E+01  6.000E-02  1.618E+00
   1    3    5     3     1    2.0000E+00  2.8252E-01   1.7175E+00  0.000E+00  0.000E+00  0.000E+00  1.07555E+03  1.909E+00  9.636E+00  7.227E-02  1.955E+00
   1    3    6     3     2    1.7175E+00  2.4905E-01   1.4684E+00  0.000E+00  0.000E+00  0.000E+00  1.07264E+03  1.727E+00  8.909E+00  6.682E-02  1.864E+00
   1    3    7     3     3    1.4684E+00  1.9718E-01   1.2712E+00  0.000E+00  0.000E+00  0.000E+00  1.06987E+03  1.555E+00  8.218E+00  5.547E-02  1.777E+00
   1    4    8     3     4    1.2712E+00  2.2567E-01   1.0456E+00  0.000E+00  0.000E+00  0.000E+00  1.06682E+03  1.364E+00  7.455E+00  6.709E-02  1.682E+00
   1    5    8     3     5    1.0456E+00  1.5790E-01   8.8768E-01  0.000E+00  0.000E+00  0.000E+00  1.06362E+03  1.164E+00  6.655E+00  4.991E-02  1.582E+00
   1    6    8     3     6    8.8768E-01  5.5980E-02   8.3170E-01  0.000E+00  0.000E+00  0.000E+00  1.06158E+03  1.036E+00  6.145E+00  1.844E-02  1.518E+00
   1    5   10     4     1    1.0000E+01  9.0919E-02   9.9091E+00  0.000E+00  0.000E+00  0.000E+00  1.07836E+03  6.368E-01  1.000E+01  2.500E-02  1.212E+00
   1    5    9     4     2    9.9091E+00  1.8158E-01   9.7275E+00  0.000E+00  0.000E+00  0.000E+00  1.07154E+03  6.315E-01  1.000E+01  5.000E-02  1.211E+00
   1    6    8     4     3    9.7275E+00  1.2689E-01   9.6006E+00  0.000E+00  0.000E+00  0.000E+00  1.06381E+03  6.256E-01  1.000E+01  3.500E-02  1.209E+00
   1    6    8     5     1    1.0432E+01  2.2686E-01   1.0205E+01  0.000E+00  0.000E+00  0.000E+00  1.05868E+03  6.790E-01  1.542E+01  6.166E-02  1.226E+00
   1    7    7     5     2    1.0205E+01  2.7894E-01   9.9265E+00  0.000E+00  0.000E+00  0.000E+00  1.05417E+03  6.732E-01  1.519E+01  7.594E-02  1.224E+00
   1    8    7     5     3    9.9265E+00  1.9221E-01   9.7343E+00  0.000E+00  0.000E+00  0.000E+00  1.04992E+03  6.676E-01  1.497E+01  5.241E-02  1.223E+00
   1    8    6     5     4    9.7343E+00  1.3577E-01   9.5985E+00  0.000E+00  0.000E+00  0.000E+00  1.04691E+03  6.637E-01  1.482E+01  3.706E-02  1.221E+00
   1    9    6     6     1    9.5985E+00  2.2097E-01   9.3776E+00  0.000E+00  0.000E+00  0.000E+00  1.04341E+03  6.828E-01  1.200E+01  6.000E-02  1.228E+00
   1   10    7     6     2    9.3776E+00  2.2039E-01   9.1572E+00  0.000E+00  0.000E+00  0.000E+00  1.03885E+03  6.732E-01  1.200E+01  6.000E-02  1.224E+00
   1   11    7     6     3    9.1572E+00  2.1981E-01   8.9374E+00  0.000E+00  0.000E+00  0.000E+00  1.03430E+03  6.636E-01  1.200E+01  6.000E-02  1.221E+00
   1   12    7     6     4    8.9374E+00  2.1923E-01   8.7181E+00  0.000E+00  0.000E+00  0.000E+00  1.02974E+03  6.539E-01  1.200E+01  6.000E-02  1.218E+00
   1   13    7     6     5    8.7181E+00 -1.3733E-01   8.8555E+00  0.000E+00  0.000E+00  0.000E+00  1.02656E+03  6.520E-01  1.200E+01  2.400E-01 -1.907E-01
   1   14    9     7     1    1.5000E+02  1.3361E+00   1.4866E+02  0.000E+00  0.000E+00  0.000E+00  1.03987E+03  2.288E+00  5.529E+01  5.593E-01  7.963E-01
   1   13    8     7     2    1.4866E+02  1.8188E+00   1.4685E+02  0.000E+00  0.000E+00  0.000E+00  1.03478E+03  2.279E+00  5.526E+01  6.148E-01  9.861E-01
   1   13    7     7     3    1.4685E+02  1.4278E+00   1.4542E+02  0.000E+00  0.000E+00  0.000E+00  1.02969E+03  2.271E+00  5.522E+01  5.585E-01  8.522E-01
   1   13    6     8     1    1.5427E+02  7.8111E-01   1.5349E+02  0.000E+00  0.000E+00  0.000E+00  1.02472E+03  2.844E+00  4.124E+01  4.202E-01  6.196E-01
   1   13    5     8     2    1.5349E+02  5.7769E-02   1.5343E+02  0.000E+00  0.000E+00  0.000E+00  1.01847E+03  2.841E+00  4.120E+01  4.198E-01  4.587E-02
   1   13    4     8     3    1.5343E+02 -2.8954E+00   1.5633E+02  0.000E+00  0.000E+00  0.000E+00  1.01223E+03  2.851E+00  4.134E+01  4.212E+00 -2.291E-01
   1   13    3     8     4    1.5633E+02 -3.9493E+00   1.6028E+02  0.000E+00  0.000E+00  0.000E+00  1.00600E+03  2.874E+00  4.168E+01  4.247E+00 -3.100E-01
   1   13    2     8     5    1.6028E+02 -2.8448E+00   1.6312E+02  0.000E+00  0.000E+00  0.000E+00  9.99772E+02  2.897E+00  4.201E+01  4.281E+00 -2.215E-01
   1   13    1     8     6    1.6312E+02 -2.2009E+00   1.6532E+02  0.000E+00  0.000E+00  0.000E+00  9.94789E+02  2.914E+00  4.226E+01  2.584E+00 -2.840E-01
   1    8    6     9     1    5.0878E+01  0.0000E+00   5.0878E+01  0.000E+00  0.000E+00  0.000E+00  1.08476E+03  6.014E+00  4.000E+00  0.000E+00  3.005E+00
   1    8    5     9     2    5.0878E+01  0.0000E+00   5.0878E+01  0.000E+00  0.000E+00  0.000E+00  1.08426E+03  6.014E+00  4.000E+00  0.000E+00  3.005E+00



 UBDSV3 SAVING "           GW ET" ON UNIT  61 AT TIME STEP 15, STRESS PERIOD   8
 UBDSV3 SAVING "    UZF RECHARGE" ON UNIT  61 AT TIME STEP 15, STRESS PERIOD   8
 UBDSV3 SAVING " SURFACE LEAKAGE" ON UNIT  61 AT TIME STEP 15, STRESS PERIOD   8
 UBDSV3 SAVING "       HORT+DUNN" ON UNIT  61 AT TIME STEP 15, STRESS PERIOD   8
 UBDSV3 SAVING "  STORAGE CHANGE" ON UNIT  61 AT TIME STEP 15, STRESS PERIOD   8


UNSATURATED ZONE PACKAGE VOLUMETRIC BUDGET FOR  TIME STEP    15 STRESS PERIOD    8
  ------------------------------------------------------------------------------



     CUMULATIVE VOLUMES      L**3       RATES FOR THIS TIME STEP      L**3/T
     ------------------                 ------------------------

           IN:                                      IN:
           ---                                      ---
        INFILTRATION =   240610211.6492          INFILTRATION =          64.2425

          OUT:                                     OUT:
          ----                                     ----
              UZF ET =   220613479.5757                UZF ET =          64.1075
        UZF RECHARGE =       73224.0000          UZF RECHARGE =       0.0000E+00

            IN - OUT =    19923508.0735              IN - OUT =           0.1350

          STORAGE:                                 STORAGE:
          --------                                 --------
      STORAGE CHANGE =    19923505.6770        STORAGE CHANGE =           0.1350

 PERCENT DISCREPANCY IS DIFFERENCE BETWEEN IN-OUT MINUS CHANGE IN STORAGE
 DIVIDED BY THE AVERAGE OF IN AND OUT TIMES 100

 PERCENT DISCREPANCY =           0.00     PERCENT DISCREPANCY =           0.00






 

            AG WELLS      PERIOD    8   STEP  15
 AG WELL      1   LAYER   1   ROW     6   COL     4   RATE    -1.49266    
 AG WELL      2   LAYER   1   ROW     6   COL     5   RATE    -1.49266    
 AG WELL      3   LAYER   1   ROW     7   COL     4   RATE    -1.49266    
 AG WELL      4   LAYER   1   ROW     7   COL     5   RATE    -1.49266    
 AG WELL      5   LAYER   1   ROW     8   COL     4   RATE    -1.49266    
 AG WELL      6   LAYER   1   ROW     8   COL     5   RATE    -1.49266    
 
 

   DIVERSION SEGMENTS     PERIOD    8   STEP  15
 SEGMENT      9   RATE     50.8780    
 
 

        SW IRRIGATION     PERIOD    8   STEP  15
 SEGMENT      9   ROW     6   COL     4   RATE     8.47984    
 SEGMENT      9   ROW     6   COL     5   RATE     8.47984    
 SEGMENT      9   ROW     7   COL     4   RATE     8.47984    
 SEGMENT      9   ROW     7   COL     5   RATE     8.47984    
 SEGMENT      9   ROW     8   COL     4   RATE     8.47984    
 SEGMENT      9   ROW     8   COL     5   RATE     8.47984    
 
 

        GW IRRIGATION     PERIOD    8   STEP  15
 AG WELL      1   ROW     6   COL     4   RATE     1.49266    
 AG WELL      2   ROW     6   COL     5   RATE     1.49266    
 AG WELL      3   ROW     7   COL     4   RATE     1.49266    
 AG WELL      4   ROW     7   COL     5   RATE     1.49266    
 AG WELL      5   ROW     8   COL     4   RATE     1.49266    
 AG WELL      6   ROW     8   COL     5   RATE     1.49266    
 
1
  VOLUMETRIC BUDGET FOR ENTIRE MODEL AT END OF TIME STEP   15, STRESS PERIOD   8
  ------------------------------------------------------------------------------

     CUMULATIVE VOLUMES      L**3       RATES FOR THIS TIME STEP      L**3/T
     ------------------                 ------------------------

           IN:                                      IN:
           ---                                      ---
               AG WELLS  =    11775076.0000                 AG WELLS  =           8.9560
      DIVERSION SEGMENTS =   153412592.0000        DIVERSION SEGMENTS =          50.8780
           GW IRRIGATION =           0.0000             GW IRRIGATION =           0.0000
           SW IRRIGATION =           0.0000             SW IRRIGATION =           0.0000
        SYSTEM LOSSES GW =           0.0000          SYSTEM LOSSES GW =           0.0000
        SYSTEM LOSSES SW =           0.0000          SYSTEM LOSSES SW =           0.0000

                TOTAL IN =   165187664.0000                  TOTAL IN =          59.8340

          OUT:                                     OUT:
          ----                                     ----
               AG WELLS  =           0.0000                 AG WELLS  =           0.0000
      DIVERSION SEGMENTS =           0.0000        DIVERSION SEGMENTS =           0.0000
           GW IRRIGATION =    11775076.0000             GW IRRIGATION =           8.9560
           SW IRRIGATION =   153415680.0000             SW IRRIGATION =          50.8790
        SYSTEM LOSSES GW =           0.0000          SYSTEM LOSSES GW =           0.0000
        SYSTEM LOSSES SW =           0.0000          SYSTEM LOSSES SW =           0.0000

               TOTAL OUT =   165190752.0000                 TOTAL OUT =          59.8350

                IN - OUT =       -3088.0000                  IN - OUT =      -1.0185E-03

     PERCENT DISCREPANCY =          -0.00         PERCENT DISCREPANCY =          -0.00



1
  VOLUMETRIC BUDGET FOR ENTIRE MODEL AT END OF TIME STEP   15, STRESS PERIOD   8
  ------------------------------------------------------------------------------

     CUMULATIVE VOLUMES      L**3       RATES FOR THIS TIME STEP      L**3/T
     ------------------                 ------------------------

           IN:                                      IN:
           ---                                      ---
             STORAGE     =    26175128.0000               STORAGE     =          10.2095
       CONSTANT HEAD     =           0.0000         CONSTANT HEAD     =           0.0000
     HEAD DEP BOUNDS     =     4909494.0000       HEAD DEP BOUNDS     =           0.2858
      STREAM LEAKAGE     =   210365520.0000        STREAM LEAKAGE     =          12.0750
        UZF RECHARGE     =       73223.9531          UZF RECHARGE     =           0.0000
               GW ET     =           0.0000                 GW ET     =           0.0000
     SURFACE LEAKAGE     =           0.0000       SURFACE LEAKAGE     =           0.0000
           AG WELLS      =           0.0000             AG WELLS      =           0.0000

                TOTAL IN =   241523360.0000                  TOTAL IN =          22.5703

          OUT:                                     OUT:
          ----                                     ----
             STORAGE     =    39616840.0000               STORAGE     =           1.2960
       CONSTANT HEAD     =           0.0000         CONSTANT HEAD     =           0.0000
     HEAD DEP BOUNDS     =     5016503.0000       HEAD DEP BOUNDS     =           0.2904
      STREAM LEAKAGE     =   183598544.0000        STREAM LEAKAGE     =          12.0277
        UZF RECHARGE     =           0.0000          UZF RECHARGE     =           0.0000
               GW ET     =     1517575.6250                 GW ET     =           0.0000
     SURFACE LEAKAGE     =           0.0000       SURFACE LEAKAGE     =           0.0000
           AG WELLS      =    11775076.0000             AG WELLS      =           8.9560

               TOTAL OUT =   241524528.0000                 TOTAL OUT =          22.5700

                IN - OUT =       -1168.0000                  IN - OUT =       3.2806E-04

     PERCENT DISCREPANCY =          -0.00         PERCENT DISCREPANCY =           0.00






         TIME SUMMARY AT END OF TIME STEP   15 IN STRESS PERIOD    8
                    SECONDS     MINUTES      HOURS       DAYS        YEARS
                    -----------------------------------------------------------
   TIME STEP LENGTH  87667.      1461.1      24.352      1.0147     2.77799E-03
 STRESS PERIOD TIME 1.31500E+06  21917.      365.28      15.220     4.16698E-02
         TOTAL TIME 1.71814E+07 2.86357E+05  4772.6      198.86     0.54445    
1
 
 SOLVING FOR HEAD 
                                                   Max.-Head-Change                         Max.-Flux-Residual
  Residual-Control   Outer-Iter.   Inner-Iter.     Column Row Layer    Maximum-Head-Change  Column Row Layer    Maximum-Flux-Residual          L2-NORM 
          0                 1           2             4    7     1      -0.2410247010E-01       4    7    1        -0.1264589492E+01      0.3181179950E+01
          0                 2           2             4   13     1      -0.2088455424E-01       4   13    1        -0.1227599229E+01      0.2155414965E+01
          0                 3           2             7   13     1      -0.1919877862E-02       7   13    1        -0.1071657069E+00      0.1900367803E+00
          0                 4           2             4    7     1      -0.4608217746E-03       5    6    1        -0.2551141298E-01      0.6311750716E-01
          0                 5           1             4    7     1       0.1834101094E-04       5    6    1         0.1043673293E-02      0.2572050836E-02

    ------------------------------------------------
       NWT REQUIRED            5 OUTER ITERATIONS 
       AND A TOTAL OF          9 INNER ITERATIONS.
    ------------------------------------------------

 NO OUTPUT CONTROL FOR STRESS PERIOD    8   TIME STEP   16
 
 SOLVING FOR HEAD 
                                                   Max.-Head-Change                         Max.-Flux-Residual
  Residual-Control   Outer-Iter.   Inner-Iter.     Column Row Layer    Maximum-Head-Change  Column Row Layer    Maximum-Flux-Residual          L2-NORM 
          0                 1           2             4    7     1      -0.2385997275E-01       4    7    1        -0.1252069128E+01      0.3165623247E+01
          0                 2           2             4   13     1      -0.2092950820E-01       4   13    1        -0.1230240171E+01      0.2160314606E+01
          0                 3           2             7   13     1      -0.1913162247E-02       7   13    1        -0.1067918016E+00      0.1913433475E+00
          0                 4           2             4    7     1      -0.4404993343E-03       5    6    1        -0.2439209773E-01      0.6040410745E-01
          0                 5           1             4    7     1       0.1753216502E-04       5    6    1         0.9978820522E-03      0.2460566177E-02

    ------------------------------------------------
       NWT REQUIRED            5 OUTER ITERATIONS 
       AND A TOTAL OF          9 INNER ITERATIONS.
    ------------------------------------------------

 NO OUTPUT CONTROL FOR STRESS PERIOD    8   TIME STEP   17
 
 SOLVING FOR HEAD 
                                                   Max.-Head-Change                         Max.-Flux-Residual
  Residual-Control   Outer-Iter.   Inner-Iter.     Column Row Layer    Maximum-Head-Change  Column Row Layer    Maximum-Flux-Residual          L2-NORM 
          0                 1           2             4    7     1      -0.2361630414E-01       4    7    1        -0.1239466458E+01      0.3150564097E+01
          0                 2           2             4   13     1      -0.2097061604E-01       4   13    1        -0.1232654311E+01      0.2164865587E+01
          0                 3           2             7   13     1      -0.1906624428E-02       7   13    1        -0.1064277945E+00      0.1933613708E+00
          0                 4           2             4    7     1      -0.4048413358E-03       5    6    1        -0.2242633984E-01      0.5564946053E-01
          0                 5           1             4    7     1       0.1611295254E-04       5    6    1         0.9174627867E-03      0.2265081314E-02

    ------------------------------------------------
       NWT REQUIRED            5 OUTER ITERATIONS 
       AND A TOTAL OF          9 INNER ITERATIONS.
    ------------------------------------------------

 NO OUTPUT CONTROL FOR STRESS PERIOD    8   TIME STEP   18
 
 SOLVING FOR HEAD 
                                                   Max.-Head-Change                         Max.-Flux-Residual
  Residual-Control   Outer-Iter.   Inner-Iter.     Column Row Layer    Maximum-Head-Change  Column Row Layer    Maximum-Flux-Residual          L2-NORM 
          0                 1           2             4    7     1      -0.2337209718E-01       4    7    1        -0.1226816740E+01      0.3135954512E+01
          0                 2           2             4   13     1      -0.2100826078E-01       4   13    1        -0.1234864310E+01      0.2169095376E+01
          0                 3           2             7   13     1      -0.1900255827E-02       7   13    1        -0.1060732103E+00      0.1968992490E+00
          0                 4           2             4    7     1      -0.3406987961E-03       5    6    1        -0.1888862978E-01      0.4712831248E-01
          0                 5           1             4    7     1       0.1356003733E-04       5    6    1         0.7727349071E-03      0.1914335467E-02

    ------------------------------------------------
       NWT REQUIRED            5 OUTER ITERATIONS 
       AND A TOTAL OF          9 INNER ITERATIONS.
    ------------------------------------------------

 NO OUTPUT CONTROL FOR STRESS PERIOD    8   TIME STEP   19
 
 SOLVING FOR HEAD 
                                                   Max.-Head-Change                         Max.-Flux-Residual
  Residual-Control   Outer-Iter.   Inner-Iter.     Column Row Layer    Maximum-Head-Change  Column Row Layer    Maximum-Flux-Residual          L2-NORM 
          0                 1           2             4    7     1      -0.2312745571E-01       4    7    1        -0.1214125564E+01      0.3121741190E+01
          0                 2           2             4   13     1      -0.2104273288E-01       4   13    1        -0.1236887331E+01      0.2173026164E+01
          0                 3           2             7   13     1      -0.1894054178E-02       7   13    1        -0.1057279229E+00      0.2044452646E+00
          0                 4           2             4    7     1      -0.2124440518E-03       5    6    1        -0.1181313882E-01      0.3033980189E-01
          0                 5           1             4    7     1       0.8455414153E-05       5    6    1         0.4832761515E-03      0.1219894167E-02

    ------------------------------------------------
       NWT REQUIRED            5 OUTER ITERATIONS 
       AND A TOTAL OF          9 INNER ITERATIONS.
    ------------------------------------------------

 NO OUTPUT CONTROL FOR STRESS PERIOD    8   TIME STEP   20
 
 SOLVING FOR HEAD 
                                                   Max.-Head-Change                         Max.-Flux-Residual
  Residual-Control   Outer-Iter.   Inner-Iter.     Column Row Layer    Maximum-Head-Change  Column Row Layer    Maximum-Flux-Residual          L2-NORM 
          0                 1           2             4    7     1      -0.2288240111E-01       4    7    1        -0.1201395609E+01      0.3107866707E+01
          0                 2           2             4   13     1      -0.2107434481E-01       4   13    1        -0.1238741862E+01      0.2176651405E+01
          0                 3           2             7   13     1      -0.1888011433E-02       7   13    1        -0.1053914858E+00      0.2217630078E+00
          0                 4           2             7   13     1       0.1285077322E-03       7   13    1         0.7367813034E-02      0.1069573200E-01
          0                 5           1             7   13     1      -0.5110091708E-05       7   13    1        -0.3008883041E-03      0.3141795928E-03

    ------------------------------------------------
       NWT REQUIRED            5 OUTER ITERATIONS 
       AND A TOTAL OF          9 INNER ITERATIONS.
    ------------------------------------------------

 NO OUTPUT CONTROL FOR STRESS PERIOD    8   TIME STEP   21
 
 SOLVING FOR HEAD 
                                                   Max.-Head-Change                         Max.-Flux-Residual
  Residual-Control   Outer-Iter.   Inner-Iter.     Column Row Layer    Maximum-Head-Change  Column Row Layer    Maximum-Flux-Residual          L2-NORM 
          0                 1           2             4    7     1      -0.2263781209E-01       4    7    1        -0.1188675202E+01      0.3094327982E+01
          0                 2           2             4   13     1      -0.2110335819E-01       4   13    1        -0.1240443304E+01      0.2179852437E+01
          0                 3           2             7   13     1      -0.1882123619E-02       7   13    1        -0.1050637292E+00      0.2216561715E+00
          0                 4           2             7   13     1       0.1281071802E-03       7   13    1         0.7344860260E-02      0.1068098122E-01
          0                 5           1             7   13     1      -0.5093581336E-05       7   13    1        -0.2999125404E-03      0.3138837771E-03

    ------------------------------------------------
       NWT REQUIRED            5 OUTER ITERATIONS 
       AND A TOTAL OF          9 INNER ITERATIONS.
    ------------------------------------------------

 NO OUTPUT CONTROL FOR STRESS PERIOD    8   TIME STEP   22
 
 SOLVING FOR HEAD 
                                                   Max.-Head-Change                         Max.-Flux-Residual
  Residual-Control   Outer-Iter.   Inner-Iter.     Column Row Layer    Maximum-Head-Change  Column Row Layer    Maximum-Flux-Residual          L2-NORM 
          0                 1           2             4    7     1      -0.2239393240E-01       4    7    1        -0.1175977695E+01      0.3081089046E+01
          0                 2           2             4   13     1      -0.2112998707E-01       4   13    1        -0.1242004367E+01      0.2182820936E+01
          0                 3           2             7   13     1      -0.1876392849E-02       7   13    1        -0.1047446640E+00      0.2216290941E+00
          0                 4           2             7   13     1       0.1277245512E-03       7   13    1         0.7322955914E-02      0.1068010326E-01
          0                 5           1             7   13     1      -0.5077864430E-05       7   13    1        -0.2989942891E-03      0.3134970510E-03

    ------------------------------------------------
       NWT REQUIRED            5 OUTER ITERATIONS 
       AND A TOTAL OF          9 INNER ITERATIONS.
    ------------------------------------------------

 NO OUTPUT CONTROL FOR STRESS PERIOD    8   TIME STEP   23
 
 SOLVING FOR HEAD 
                                                   Max.-Head-Change                         Max.-Flux-Residual
  Residual-Control   Outer-Iter.   Inner-Iter.     Column Row Layer    Maximum-Head-Change  Column Row Layer    Maximum-Flux-Residual          L2-NORM 
          0                 1           2             4    7     1      -0.2215046785E-01       4    7    1        -0.1163287942E+01      0.3068116958E+01
          0                 2           2             4   13     1      -0.2115449230E-01       4   13    1        -0.1243440441E+01      0.2185579932E+01
          0                 3           2             7   13     1      -0.1870789972E-02       7   13    1        -0.1044327206E+00      0.2214960864E+00
          0                 4           2             7   13     1       0.1273359154E-03       7   13    1         0.7300704202E-02      0.1066397424E-01
          0                 5           1             7   13     1      -0.5063856955E-05       7   13    1        -0.2981631487E-03      0.3128826542E-03

    ------------------------------------------------
       NWT REQUIRED            5 OUTER ITERATIONS 
       AND A TOTAL OF          9 INNER ITERATIONS.
    ------------------------------------------------

 NO OUTPUT CONTROL FOR STRESS PERIOD    8   TIME STEP   24
 
 SOLVING FOR HEAD 
                                                   Max.-Head-Change                         Max.-Flux-Residual
  Residual-Control   Outer-Iter.   Inner-Iter.     Column Row Layer    Maximum-Head-Change  Column Row Layer    Maximum-Flux-Residual          L2-NORM 
          0                 1           2             4    7     1      -0.2190821770E-01       4    7    1        -0.1150649442E+01      0.3055417141E+01
          0                 2           2             4   13     1      -0.2117702358E-01       4   13    1        -0.1244760357E+01      0.2188141831E+01
          0                 3           2             7   13     1      -0.1865336549E-02       7   13    1        -0.1041291009E+00      0.2213568261E+00
          0                 4           2             7   13     1       0.1269560260E-03       7   13    1         0.7278955905E-02      0.1064886642E-01
          0                 5           1             7   13     1      -0.5040633200E-05       7   13    1        -0.2967982073E-03      0.3116104056E-03

    ------------------------------------------------
       NWT REQUIRED            5 OUTER ITERATIONS 
       AND A TOTAL OF          9 INNER ITERATIONS.
    ------------------------------------------------

 NO OUTPUT CONTROL FOR STRESS PERIOD    8   TIME STEP   25
 
 SOLVING FOR HEAD 
                                                   Max.-Head-Change                         Max.-Flux-Residual
  Residual-Control   Outer-Iter.   Inner-Iter.     Column Row Layer    Maximum-Head-Change  Column Row Layer    Maximum-Flux-Residual          L2-NORM 
          0                 1           2             4    7     1      -0.2166709765E-01       4    7    1        -0.1138059130E+01      0.3042954621E+01
          0                 2           2             4   13     1      -0.2119777036E-01       4   13    1        -0.1245975281E+01      0.2190524371E+01
          0                 3           2             7   13     1      -0.1860015038E-02       7   13    1        -0.1038328267E+00      0.2212495925E+00
          0                 4           2             7   13     1       0.1266021649E-03       7   13    1         0.7258698040E-02      0.1063439062E-01
          0                 5           1             7   13     1      -0.5033474039E-05       7   13    1        -0.2963813949E-03      0.3108768864E-03

    ------------------------------------------------
       NWT REQUIRED            5 OUTER ITERATIONS 
       AND A TOTAL OF          9 INNER ITERATIONS.
    ------------------------------------------------

 NO OUTPUT CONTROL FOR STRESS PERIOD    8   TIME STEP   26
 
 SOLVING FOR HEAD 
                                                   Max.-Head-Change                         Max.-Flux-Residual
  Residual-Control   Outer-Iter.   Inner-Iter.     Column Row Layer    Maximum-Head-Change  Column Row Layer    Maximum-Flux-Residual          L2-NORM 
          0                 1           2             4    7     1      -0.2142729821E-01       4    7    1        -0.1125527251E+01      0.3030724630E+01
          0                 2           2             4   13     1      -0.2121693891E-01       4   13    1        -0.1247097383E+01      0.2192742339E+01
          0                 3           2             7   13     1      -0.1854824036E-02       7   13    1        -0.1035438196E+00      0.2211090313E+00
          0                 4           2             7   13     1       0.1262476085E-03       7   13    1         0.7238397117E-02      0.1062081924E-01
          0                 5           1             7   13     1      -0.5019544160E-05       7   13    1        -0.2955540281E-03      0.3102803533E-03

    ------------------------------------------------
       NWT REQUIRED            5 OUTER ITERATIONS 
       AND A TOTAL OF          9 INNER ITERATIONS.
    ------------------------------------------------

 NO OUTPUT CONTROL FOR STRESS PERIOD    8   TIME STEP   27
 
 SOLVING FOR HEAD 
                                                   Max.-Head-Change                         Max.-Flux-Residual
  Residual-Control   Outer-Iter.   Inner-Iter.     Column Row Layer    Maximum-Head-Change  Column Row Layer    Maximum-Flux-Residual          L2-NORM 
          0                 1           2             4    7     1      -0.2118900012E-01       4    7    1        -0.1113064019E+01      0.3018711046E+01
          0                 2           2             4   13     1      -0.2123456352E-01       4   13    1        -0.1248128735E+01      0.2194802036E+01
          0                 3           2             7   13     1      -0.1849760618E-02       7   13    1        -0.1032619189E+00      0.2209987621E+00
          0                 4           2             7   13     1       0.1259035247E-03       7   13    1         0.7218693215E-02      0.1060767145E-01
          0                 5           1             7   13     1      -0.5006587119E-05       7   13    1        -0.2947911512E-03      0.3096474302E-03

    ------------------------------------------------
       NWT REQUIRED            5 OUTER ITERATIONS 
       AND A TOTAL OF          9 INNER ITERATIONS.
    ------------------------------------------------

 NO OUTPUT CONTROL FOR STRESS PERIOD    8   TIME STEP   28
 
 SOLVING FOR HEAD 
                                                   Max.-Head-Change                         Max.-Flux-Residual
  Residual-Control   Outer-Iter.   Inner-Iter.     Column Row Layer    Maximum-Head-Change  Column Row Layer    Maximum-Flux-Residual          L2-NORM 
          0                 1           2             4    7     1      -0.2095234853E-01       4    7    1        -0.1100677868E+01      0.3006917218E+01
          0                 2           2             4   13     1      -0.2125087313E-01       4   13    1        -0.1249082818E+01      0.2196719874E+01
          0                 3           2             7   13     1      -0.1844827850E-02       7   13    1        -0.1029872909E+00      0.2208636402E+00
          0                 4           2             7   13     1       0.1255761059E-03       7   13    1         0.7199957572E-02      0.1059400414E-01
          0                 5           1             7   13     1      -0.4992771218E-05       7   13    1        -0.2939840738E-03      0.3088675788E-03

    ------------------------------------------------
       NWT REQUIRED            5 OUTER ITERATIONS 
       AND A TOTAL OF          9 INNER ITERATIONS.
    ------------------------------------------------

 NO OUTPUT CONTROL FOR STRESS PERIOD    8   TIME STEP   29
 
 SOLVING FOR HEAD 
                                                   Max.-Head-Change                         Max.-Flux-Residual
  Residual-Control   Outer-Iter.   Inner-Iter.     Column Row Layer    Maximum-Head-Change  Column Row Layer    Maximum-Flux-Residual          L2-NORM 
          0                 1           2             4    7     1      -0.2071778153E-01       4   13    1         0.1088912316E+01      0.2995329758E+01
          0                 2           2             4   13     1      -0.2126597119E-01       4   13    1        -0.1249965702E+01      0.2198505062E+01
          0                 3           2             7   13     1      -0.1839996285E-02       7   13    1        -0.1027183025E+00      0.2207448534E+00
          0                 4           2             7   13     1       0.1252395380E-03       7   13    1         0.7180686348E-02      0.1058044164E-01
          0                 5           1             7   13     1      -0.4979277678E-05       7   13    1        -0.2931848844E-03      0.3082050020E-03

    ------------------------------------------------
       NWT REQUIRED            5 OUTER ITERATIONS 
       AND A TOTAL OF          9 INNER ITERATIONS.
    ------------------------------------------------

 NO OUTPUT CONTROL FOR STRESS PERIOD    8   TIME STEP   30



 STREAM LISTING     PERIOD      8   STEP       30

 LAYER ROW COL. STREAM  RCH.  FLOW INTO     FLOW TO   FLOW OUT OF   OVRLND.     DIRECT     STREAM       STREAM     STREAM     STREAM   STREAMBED  STREAMBED
                SEG.NO.  NO.  STRM. RCH.    AQUIFER    STRM. RCH.    RUNOFF     PRECIP       ET          HEAD       DEPTH      WIDTH   CONDCTNC.   GRADIENT

   1    1    1     1     1    5.6250E+01  3.5874E-01   5.5891E+01  0.000E+00  0.000E+00  0.000E+00  1.09453E+03  1.479E+00  1.780E+01  8.010E-02  1.493E+00
   1    2    2     1     2    5.5891E+01  5.5550E-01   5.5335E+01  0.000E+00  0.000E+00  0.000E+00  1.08953E+03  1.473E+00  1.774E+01  1.242E-01  1.491E+00
   1    3    3     1     3    5.5335E+01  4.7368E-01   5.4862E+01  0.000E+00  0.000E+00  0.000E+00  1.08389E+03  1.467E+00  1.767E+01  1.060E-01  1.489E+00
   1    3    4     1     4    5.4862E+01  4.3613E-01   5.4426E+01  0.000E+00  0.000E+00  0.000E+00  1.07887E+03  1.461E+00  1.762E+01  9.777E-02  1.487E+00
   1    4    5     2     1    5.2426E+01  3.8056E-01   5.2045E+01  0.000E+00  0.000E+00  0.000E+00  1.07381E+03  1.879E+00  1.200E+01  7.800E-02  1.626E+00
   1    5    6     2     2    5.2045E+01  2.9230E-01   5.1753E+01  0.000E+00  0.000E+00  0.000E+00  1.06838E+03  1.872E+00  1.200E+01  6.000E-02  1.624E+00
   1    6    6     2     3    5.1753E+01  2.9192E-01   5.1461E+01  0.000E+00  0.000E+00  0.000E+00  1.06366E+03  1.865E+00  1.200E+01  6.000E-02  1.622E+00
   1    7    6     2     4    5.1461E+01  2.9154E-01   5.1169E+01  0.000E+00  0.000E+00  0.000E+00  1.05893E+03  1.859E+00  1.200E+01  6.000E-02  1.620E+00
   1    8    6     2     5    5.1169E+01  2.9116E-01   5.0878E+01  0.000E+00  0.000E+00  0.000E+00  1.05421E+03  1.853E+00  1.200E+01  6.000E-02  1.618E+00
   1    3    5     3     1    2.0000E+00  2.8252E-01   1.7175E+00  0.000E+00  0.000E+00  0.000E+00  1.07555E+03  1.909E+00  9.636E+00  7.227E-02  1.955E+00
   1    3    6     3     2    1.7175E+00  2.4905E-01   1.4684E+00  0.000E+00  0.000E+00  0.000E+00  1.07264E+03  1.727E+00  8.909E+00  6.682E-02  1.864E+00
   1    3    7     3     3    1.4684E+00  1.9718E-01   1.2712E+00  0.000E+00  0.000E+00  0.000E+00  1.06987E+03  1.555E+00  8.218E+00  5.547E-02  1.777E+00
   1    4    8     3     4    1.2712E+00  2.2567E-01   1.0456E+00  0.000E+00  0.000E+00  0.000E+00  1.06682E+03  1.364E+00  7.455E+00  6.709E-02  1.682E+00
   1    5    8     3     5    1.0456E+00  1.5790E-01   8.8768E-01  0.000E+00  0.000E+00  0.000E+00  1.06362E+03  1.164E+00  6.655E+00  4.991E-02  1.582E+00
   1    6    8     3     6    8.8768E-01  5.5980E-02   8.3170E-01  0.000E+00  0.000E+00  0.000E+00  1.06158E+03  1.036E+00  6.145E+00  1.844E-02  1.518E+00
   1    5   10     4     1    1.0000E+01  9.0919E-02   9.9091E+00  0.000E+00  0.000E+00  0.000E+00  1.07836E+03  6.368E-01  1.000E+01  2.500E-02  1.212E+00
   1    5    9     4     2    9.9091E+00  1.8158E-01   9.7275E+00  0.000E+00  0.000E+00  0.000E+00  1.07154E+03  6.315E-01  1.000E+01  5.000E-02  1.211E+00
   1    6    8     4     3    9.7275E+00  1.2689E-01   9.6006E+00  0.000E+00  0.000E+00  0.000E+00  1.06381E+03  6.256E-01  1.000E+01  3.500E-02  1.209E+00
   1    6    8     5     1    1.0432E+01  2.2686E-01   1.0205E+01  0.000E+00  0.000E+00  0.000E+00  1.05868E+03  6.790E-01  1.542E+01  6.166E-02  1.226E+00
   1    7    7     5     2    1.0205E+01  2.7894E-01   9.9265E+00  0.000E+00  0.000E+00  0.000E+00  1.05417E+03  6.732E-01  1.519E+01  7.594E-02  1.224E+00
   1    8    7     5     3    9.9265E+00  1.9221E-01   9.7343E+00  0.000E+00  0.000E+00  0.000E+00  1.04992E+03  6.676E-01  1.497E+01  5.241E-02  1.223E+00
   1    8    6     5     4    9.7343E+00  1.3577E-01   9.5985E+00  0.000E+00  0.000E+00  0.000E+00  1.04691E+03  6.637E-01  1.482E+01  3.706E-02  1.221E+00
   1    9    6     6     1    9.5985E+00  2.2097E-01   9.3776E+00  0.000E+00  0.000E+00  0.000E+00  1.04341E+03  6.828E-01  1.200E+01  6.000E-02  1.228E+00
   1   10    7     6     2    9.3776E+00  2.2039E-01   9.1572E+00  0.000E+00  0.000E+00  0.000E+00  1.03885E+03  6.732E-01  1.200E+01  6.000E-02  1.224E+00
   1   11    7     6     3    9.1572E+00  2.1981E-01   8.9374E+00  0.000E+00  0.000E+00  0.000E+00  1.03430E+03  6.636E-01  1.200E+01  6.000E-02  1.221E+00
   1   12    7     6     4    8.9374E+00  2.1923E-01   8.7181E+00  0.000E+00  0.000E+00  0.000E+00  1.02974E+03  6.539E-01  1.200E+01  6.000E-02  1.218E+00
   1   13    7     6     5    8.7181E+00 -1.3255E-01   8.8507E+00  0.000E+00  0.000E+00  0.000E+00  1.02656E+03  6.519E-01  1.200E+01  2.400E-01 -1.841E-01
   1   14    9     7     1    1.5000E+02  1.3361E+00   1.4866E+02  0.000E+00  0.000E+00  0.000E+00  1.03987E+03  2.288E+00  5.529E+01  5.593E-01  7.963E-01
   1   13    8     7     2    1.4866E+02  1.8201E+00   1.4684E+02  0.000E+00  0.000E+00  0.000E+00  1.03478E+03  2.279E+00  5.526E+01  6.148E-01  9.869E-01
   1   13    7     7     3    1.4684E+02  1.4390E+00   1.4540E+02  0.000E+00  0.000E+00  0.000E+00  1.02969E+03  2.271E+00  5.522E+01  5.585E-01  8.589E-01
   1   13    6     8     1    1.5426E+02  7.9144E-01   1.5346E+02  0.000E+00  0.000E+00  0.000E+00  1.02472E+03  2.844E+00  4.124E+01  4.202E-01  6.278E-01
   1   13    5     8     2    1.5346E+02  6.8204E-02   1.5340E+02  0.000E+00  0.000E+00  0.000E+00  1.01847E+03  2.841E+00  4.119E+01  4.198E-01  5.416E-02
   1   13    4     8     3    1.5340E+02 -2.7895E+00   1.5619E+02  0.000E+00  0.000E+00  0.000E+00  1.01223E+03  2.850E+00  4.133E+01  4.212E+00 -2.208E-01
   1   13    3     8     4    1.5619E+02 -3.8405E+00   1.6003E+02  0.000E+00  0.000E+00  0.000E+00  1.00600E+03  2.873E+00  4.166E+01  4.245E+00 -3.016E-01
   1   13    2     8     5    1.6003E+02 -2.6952E+00   1.6272E+02  0.000E+00  0.000E+00  0.000E+00  9.99770E+02  2.895E+00  4.198E+01  4.278E+00 -2.100E-01
   1   13    1     8     6    1.6272E+02 -2.0924E+00   1.6481E+02  0.000E+00  0.000E+00  0.000E+00  9.94786E+02  2.911E+00  4.221E+01  2.581E+00 -2.702E-01
   1    8    6     9     1    5.0878E+01  0.0000E+00   5.0878E+01  0.000E+00  0.000E+00  0.000E+00  1.08476E+03  6.014E+00  4.000E+00  0.000E+00  3.005E+00
   1    8    5     9     2    5.0878E+01  0.0000E+00   5.0878E+01  0.000E+00  0.000E+00  0.000E+00  1.08426E+03  6.014E+00  4.000E+00  0.000E+00  3.005E+00





UNSATURATED ZONE PACKAGE VOLUMETRIC BUDGET FOR  TIME STEP    30 STRESS PERIOD    8
  ------------------------------------------------------------------------------



     CUMULATIVE VOLUMES      L**3       RATES FOR THIS TIME STEP      L**3/T
     ------------------                 ------------------------

           IN:                                      IN:
           ---                                      ---
        INFILTRATION =   325089100.7517          INFILTRATION =          64.2425

          OUT:                                     OUT:
          ----                                     ----
              UZF ET =   304914835.8657                UZF ET =          64.1075
        UZF RECHARGE =       73224.0000          UZF RECHARGE =       0.0000E+00

            IN - OUT =    20101040.8860              IN - OUT =           0.1350

          STORAGE:                                 STORAGE:
          --------                                 --------
      STORAGE CHANGE =    20101036.8290        STORAGE CHANGE =           0.1350

 PERCENT DISCREPANCY IS DIFFERENCE BETWEEN IN-OUT MINUS CHANGE IN STORAGE
 DIVIDED BY THE AVERAGE OF IN AND OUT TIMES 100

 PERCENT DISCREPANCY =           0.00     PERCENT DISCREPANCY =           0.00






1
  VOLUMETRIC BUDGET FOR ENTIRE MODEL AT END OF TIME STEP   30, STRESS PERIOD   8
  ------------------------------------------------------------------------------

     CUMULATIVE VOLUMES      L**3       RATES FOR THIS TIME STEP      L**3/T
     ------------------                 ------------------------

           IN:                                      IN:
           ---                                      ---
               AG WELLS  =    23552166.0000                 AG WELLS  =           8.9560
      DIVERSION SEGMENTS =   220317152.0000        DIVERSION SEGMENTS =          50.8780
           GW IRRIGATION =           0.0000             GW IRRIGATION =           0.0000
           SW IRRIGATION =           0.0000             SW IRRIGATION =           0.0000
        SYSTEM LOSSES GW =           0.0000          SYSTEM LOSSES GW =           0.0000
        SYSTEM LOSSES SW =           0.0000          SYSTEM LOSSES SW =           0.0000

                TOTAL IN =   243869312.0000                  TOTAL IN =          59.8340

          OUT:                                     OUT:
          ----                                     ----
               AG WELLS  =           0.0000                 AG WELLS  =           0.0000
      DIVERSION SEGMENTS =           0.0000        DIVERSION SEGMENTS =           0.0000
           GW IRRIGATION =    23552166.0000             GW IRRIGATION =           8.9560
           SW IRRIGATION =   220321680.0000             SW IRRIGATION =          50.8790
        SYSTEM LOSSES GW =           0.0000          SYSTEM LOSSES GW =           0.0000
        SYSTEM LOSSES SW =           0.0000          SYSTEM LOSSES SW =           0.0000

               TOTAL OUT =   243873840.0000                 TOTAL OUT =          59.8350

                IN - OUT =       -4528.0000                  IN - OUT =      -1.0185E-03

     PERCENT DISCREPANCY =          -0.00         PERCENT DISCREPANCY =          -0.00



1
  VOLUMETRIC BUDGET FOR ENTIRE MODEL AT END OF TIME STEP   30, STRESS PERIOD   8
  ------------------------------------------------------------------------------

     CUMULATIVE VOLUMES      L**3       RATES FOR THIS TIME STEP      L**3/T
     ------------------                 ------------------------

           IN:                                      IN:
           ---                                      ---
             STORAGE     =    39046580.0000               STORAGE     =           9.5058
       CONSTANT HEAD     =           0.0000         CONSTANT HEAD     =           0.0000
     HEAD DEP BOUNDS     =     5285295.0000       HEAD DEP BOUNDS     =           0.2858
      STREAM LEAKAGE     =   226268560.0000        STREAM LEAKAGE     =          12.1082
        UZF RECHARGE     =       73223.9531          UZF RECHARGE     =           0.0000
               GW ET     =           0.0000                 GW ET     =           0.0000
     SURFACE LEAKAGE     =           0.0000       SURFACE LEAKAGE     =           0.0000
           AG WELLS      =           0.0000             AG WELLS      =           0.0000

                TOTAL IN =   270673664.0000                  TOTAL IN =          21.8998

          OUT:                                     OUT:
          ----                                     ----
             STORAGE     =    41179192.0000               STORAGE     =           1.1049
       CONSTANT HEAD     =           0.0000         CONSTANT HEAD     =           0.0000
     HEAD DEP BOUNDS     =     5397024.5000       HEAD DEP BOUNDS     =           0.2887
      STREAM LEAKAGE     =   199028896.0000        STREAM LEAKAGE     =          11.5502
        UZF RECHARGE     =           0.0000          UZF RECHARGE     =           0.0000
               GW ET     =     1517575.6250                 GW ET     =           0.0000
     SURFACE LEAKAGE     =           0.0000       SURFACE LEAKAGE     =           0.0000
           AG WELLS      =    23552166.0000             AG WELLS      =           8.9560

               TOTAL OUT =   270674848.0000                 TOTAL OUT =          21.8998

                IN - OUT =       -1184.0000                  IN - OUT =       7.6294E-06

     PERCENT DISCREPANCY =          -0.00         PERCENT DISCREPANCY =           0.00






         TIME SUMMARY AT END OF TIME STEP   30 IN STRESS PERIOD    8
                    SECONDS     MINUTES      HOURS       DAYS        YEARS
                    -----------------------------------------------------------
   TIME STEP LENGTH  87667.      1461.1      24.352      1.0147     2.77799E-03
 STRESS PERIOD TIME 2.63000E+06  43833.      730.56      30.440     8.33397E-02
         TOTAL TIME 1.84964E+07 3.08274E+05  5137.9      214.08     0.58612    
1
1
                            STRESS PERIOD NO.    9, LENGTH =   2630000.    
                            -----------------------------------------------

                              NUMBER OF TIME STEPS =    30

                               MULTIPLIER FOR DELT =     1.000

                            INITIAL TIME STEP SIZE =   87666.66    

 REUSING NON-PARAMETER GHB CELLS FROM LAST STRESS PERIOD

      2 GHB CELLS

 REUSING STREAM SEGMENT DATA FROM LAST STRESS PERIOD



            AREAL INFILTRATION RATE
 READING ON UNIT   19 WITH FORMAT: (10F4.0)            

            1           2           3           4           5           6           7           8           9          10
 ........................................................................................................................
   1   1.2000E-09   0.000       0.000       0.000       0.000       0.000       0.000       0.000       0.000       0.000    
   2   2.1000E-09  2.0000E-09  8.0000E-10  8.5000E-09   0.000       0.000       0.000       0.000       0.000       0.000    
   3   5.0000E-10  1.1000E-09  8.8000E-09  5.5000E-09   0.000       0.000       0.000       0.000       0.000       0.000    
   4   8.5000E-09  1.1000E-09  1.1000E-09  1.1000E-09  2.0000E-09   0.000       0.000       0.000       0.000       0.000    
   5   8.5000E-09  1.1000E-09  1.1000E-09  1.1000E-09  1.1000E-09   0.000       0.000       0.000       0.000       0.000    
   6   8.5000E-09  5.2000E-09  2.1000E-09  1.1000E-09  1.5000E-09   0.000       0.000       0.000       0.000       0.000    
   7   8.5000E-09  5.2000E-09  2.1000E-09  1.2000E-09  2.0000E-09   0.000       0.000       0.000       0.000       0.000    
   8   5.0000E-10  5.2000E-09  2.1000E-09  1.2000E-09  5.0000E-09   0.000       0.000       0.000       0.000       0.000    
   9   5.0000E-10  5.2000E-09  2.1000E-09  1.2000E-09  5.0000E-09   0.000       0.000       0.000       0.000       0.000    
  10   5.0000E-10  5.2000E-09  2.1000E-09  1.2000E-09  5.8000E-09   0.000       0.000       0.000       0.000       0.000    
  11   1.0000E-10  1.1000E-09  1.1000E-09  1.2000E-09  5.0000E-09   0.000       0.000       0.000       0.000       0.000    
  12   1.1000E-09  1.1000E-09  1.1000E-09  1.1000E-09  2.0000E-09   0.000       0.000       0.000       0.000       0.000    
  13   1.1000E-09  2.2000E-09  2.2000E-09  2.1000E-09  1.0000E-09   0.000       0.000       0.000       0.000       0.000    
  14   2.0000E-10  5.5000E-09  5.5000E-09  5.2000E-09  1.0000E-09   0.000       0.000       0.000       0.000       0.000    
  15    0.000      8.8000E-09  8.8000E-09   0.000       0.000       0.000       0.000       0.000       0.000       0.000    

                  ET RATE =  3.250000E-07

 USING ET EXTINCTION DEPTH FROM PREVIOUS STRESS PERIOD. CURRENT PERIOD IS:       9

 USING EXTINCTION WATER CONTENT FROM PREVIOUS STRESS PERIOD. CURRENT PERIOD IS:       9

 USING AIR ENTRY PRESSURE FROM PREVIOUS STRESS PERIOD. CURRENT PERIOD IS:       9

 USING ROOT PRESSURE HEAD FROM PREVIOUS STRESS PERIOD. CURRENT PERIOD IS:       9

 USING ROOT ACTIVITY FROM PREVIOUS STRESS PERIOD. CURRENT PERIOD IS:       9

 PROCESSING AG STRESS PERIOD DATA

 READING AG STRESS PERIOD DATA

 READING IRRIGATION SEGMENT

 READING IRRIGATION WELL

 READING SUPPLEMENTAL WELL

 END PROCESSING AG STRESS PERIOD DATA OPTIONS
 
 SOLVING FOR HEAD 
                                                   Max.-Head-Change                         Max.-Flux-Residual
  Residual-Control   Outer-Iter.   Inner-Iter.     Column Row Layer    Maximum-Head-Change  Column Row Layer    Maximum-Flux-Residual          L2-NORM 
          0                 1           2             4    7     1      -0.1593754002E-01       4   13    1         0.8644167249E+00      0.2323038697E+01
          0                 2           2             4   13     1      -0.1705296834E-01       4   13    1        -0.1002370147E+01      0.1760847037E+01
          0                 3           2             7   13     1      -0.1905576026E-02       7   13    1        -0.1063296600E+00      0.2012727999E+00
          0                 4           2             7   13     1       0.1297023843E-03       7   13    1         0.7434526445E-02      0.1009968948E-01
          0                 5           1             7   13     1      -0.5147808321E-05       7   13    1        -0.3030820517E-03      0.3146517093E-03

    ------------------------------------------------
       NWT REQUIRED            5 OUTER ITERATIONS 
       AND A TOTAL OF          9 INNER ITERATIONS.
    ------------------------------------------------

 NO OUTPUT CONTROL FOR STRESS PERIOD    9   TIME STEP    1
 
 SOLVING FOR HEAD 
                                                   Max.-Head-Change                         Max.-Flux-Residual
  Residual-Control   Outer-Iter.   Inner-Iter.     Column Row Layer    Maximum-Head-Change  Column Row Layer    Maximum-Flux-Residual          L2-NORM 
          0                 1           2             4    7     1      -0.1704585711E-01       4    7    1        -0.8964564857E+00      0.2422348249E+01
          0                 2           2             4   13     1      -0.1688498330E-01       4   13    1        -0.9924938505E+00      0.1745137202E+01
          0                 3           2             7   13     1      -0.1904097807E-02       7   13    1        -0.1062456444E+00      0.2027794546E+00
          0                 4           2             7   13     1       0.1296028464E-03       7   13    1         0.7428758599E-02      0.1014910594E-01
          0                 5           1             7   13     1      -0.5153405877E-05       7   13    1        -0.3034095371E-03      0.3152735049E-03

    ------------------------------------------------
       NWT REQUIRED            5 OUTER ITERATIONS 
       AND A TOTAL OF          9 INNER ITERATIONS.
    ------------------------------------------------

 NO OUTPUT CONTROL FOR STRESS PERIOD    9   TIME STEP    2
 
 SOLVING FOR HEAD 
                                                   Max.-Head-Change                         Max.-Flux-Residual
  Residual-Control   Outer-Iter.   Inner-Iter.     Column Row Layer    Maximum-Head-Change  Column Row Layer    Maximum-Flux-Residual          L2-NORM 
          0                 1           2             4    7     1      -0.1681133569E-01       4    7    1        -0.8840819479E+00      0.2412425444E+01
          0                 2           2             4   13     1      -0.1689576984E-01       4   13    1        -0.9931237889E+00      0.1746398012E+01
          0                 3           2             7   13     1      -0.1899605250E-02       7   13    1        -0.1059955223E+00      0.2042419387E+00
          0                 4           2             7   13     1       0.1292946147E-03       7   13    1         0.7411113221E-02      0.1018930343E-01
          0                 5           1             7   13     1      -0.5140970829E-05       7   13    1        -0.3026769396E-03      0.3147312247E-03

    ------------------------------------------------
       NWT REQUIRED            5 OUTER ITERATIONS 
       AND A TOTAL OF          9 INNER ITERATIONS.
    ------------------------------------------------

 NO OUTPUT CONTROL FOR STRESS PERIOD    9   TIME STEP    3
 
 SOLVING FOR HEAD 
                                                   Max.-Head-Change                         Max.-Flux-Residual
  Residual-Control   Outer-Iter.   Inner-Iter.     Column Row Layer    Maximum-Head-Change  Column Row Layer    Maximum-Flux-Residual          L2-NORM 
          0                 1           2             4   13     1       0.1502357240E-01       4   13    1         0.8654409797E+00      0.1758411885E+01
          0                 2           2             4   13     1      -0.1690578261E-01       4   13    1        -0.9937083169E+00      0.1875560652E+01
          0                 3           2             4    7     1      -0.4676162495E-02       4    7    1        -0.2442230190E+00      0.6149831371E+00
          0                 4           2             4    7     1       0.1314841088E-03       7   13    1         0.7394060510E-02      0.1900596159E-01
          0                 5           2             4    7     1      -0.5858366755E-03       4    7    1        -0.3232572385E-01      0.7915007692E-01
          0                 6           1             4    7     1       0.2331098725E-04       4    7    1         0.1322190716E-02      0.3237320061E-02

    ------------------------------------------------
       NWT REQUIRED            6 OUTER ITERATIONS 
       AND A TOTAL OF         11 INNER ITERATIONS.
    ------------------------------------------------

 NO OUTPUT CONTROL FOR STRESS PERIOD    9   TIME STEP    4
 
 SOLVING FOR HEAD 
                                                   Max.-Head-Change                         Max.-Flux-Residual
  Residual-Control   Outer-Iter.   Inner-Iter.     Column Row Layer    Maximum-Head-Change  Column Row Layer    Maximum-Flux-Residual          L2-NORM 
          0                 1           2             4   13     1       0.1507649256E-01       4   13    1         0.8684542112E+00      0.1755069916E+01
          0                 2           2             4   13     1      -0.1691507699E-01       4   13    1        -0.9942507031E+00      0.1890233174E+01
          0                 3           2             4    7     1      -0.4828478967E-02       5    8    1        -0.2586931092E+00      0.6412479835E+00
          0                 4           2             4    7     1       0.1354135494E-03       7   13    1         0.7377404606E-02      0.1696660738E-01
          0                 5           2             4    7     1      -0.6057733334E-03       5    7    1        -0.3343046063E-01      0.8145339507E-01
          0                 6           1             4    7     1       0.2410428526E-04       5    7    1         0.1397385409E-02      0.2817723410E-02

    ------------------------------------------------
       NWT REQUIRED            6 OUTER ITERATIONS 
       AND A TOTAL OF         11 INNER ITERATIONS.
    ------------------------------------------------

 NO OUTPUT CONTROL FOR STRESS PERIOD    9   TIME STEP    5
 
 SOLVING FOR HEAD 
                                                   Max.-Head-Change                         Max.-Flux-Residual
  Residual-Control   Outer-Iter.   Inner-Iter.     Column Row Layer    Maximum-Head-Change  Column Row Layer    Maximum-Flux-Residual          L2-NORM 
          0                 1           2             4   13     1       0.1512542028E-01       4   13    1         0.8712364545E+00      0.1754460390E+01
          0                 2           2             4   13     1      -0.1692376464E-01       4   13    1        -0.9947552097E+00      0.1905425505E+01
          0                 3           2             4    7     1      -0.4980030979E-02       5    8    1        -0.2670984708E+00      0.6604154814E+00
          0                 4           2             4    7     1       0.1392930485E-03       5    7    1         0.7558392574E-02      0.1732693532E-01
          0                 5           2             4    7     1      -0.6256245084E-03       5    7    1        -0.3452640739E-01      0.8412488200E-01
          0                 6           1             4    7     1       0.2489418171E-04       5    7    1         0.1443196546E-02      0.2910099494E-02

    ------------------------------------------------
       NWT REQUIRED            6 OUTER ITERATIONS 
       AND A TOTAL OF         11 INNER ITERATIONS.
    ------------------------------------------------

 NO OUTPUT CONTROL FOR STRESS PERIOD    9   TIME STEP    6
 
 SOLVING FOR HEAD 
                                                   Max.-Head-Change                         Max.-Flux-Residual
  Residual-Control   Outer-Iter.   Inner-Iter.     Column Row Layer    Maximum-Head-Change  Column Row Layer    Maximum-Flux-Residual          L2-NORM 
          0                 1           2             4   13     1       0.1517039861E-01       4   13    1         0.8737955692E+00      0.1756555744E+01
          0                 2           2             4   13     1      -0.1693179256E-01       4   13    1        -0.9952249006E+00      0.1921102969E+01
          0                 3           2             4    7     1      -0.5130763728E-02       5    8    1        -0.2754615637E+00      0.6795181368E+00
          0                 4           2             4    7     1       0.1431061727E-03       5    7    1         0.7771829551E-02      0.1768438891E-01
          0                 5           2             4    7     1      -0.6454042042E-03       5    7    1        -0.3561840447E-01      0.8678683478E-01
          0                 6           1             4    7     1       0.2568123451E-04       5    7    1         0.1488842672E-02      0.3002139628E-02

    ------------------------------------------------
       NWT REQUIRED            6 OUTER ITERATIONS 
       AND A TOTAL OF         11 INNER ITERATIONS.
    ------------------------------------------------

 NO OUTPUT CONTROL FOR STRESS PERIOD    9   TIME STEP    7
 
 SOLVING FOR HEAD 
                                                   Max.-Head-Change                         Max.-Flux-Residual
  Residual-Control   Outer-Iter.   Inner-Iter.     Column Row Layer    Maximum-Head-Change  Column Row Layer    Maximum-Flux-Residual          L2-NORM 
          0                 1           2             4   13     1       0.1521192556E-01       4   13    1         0.8761567114E+00      0.1761336425E+01
          0                 2           2             4   13     1      -0.1693934587E-01       4   13    1        -0.9956623566E+00      0.1937289211E+01
          0                 3           2             4    7     1      -0.5280639514E-02       4    6    1        -0.2843235851E+00      0.7026438390E+00
          0                 4           2             4    7     1       0.1468470625E-03       4    7    1         0.7999500779E-02      0.1630428335E-01
          0                 5           2             4    7     1      -0.6651897976E-03       4    7    1        -0.3671194515E-01      0.8923322226E-01
          0                 6           1             4    7     1       0.2646852148E-04       5    7    1         0.1534502305E-02      0.2743750283E-02

    ------------------------------------------------
       NWT REQUIRED            6 OUTER ITERATIONS 
       AND A TOTAL OF         11 INNER ITERATIONS.
    ------------------------------------------------

 NO OUTPUT CONTROL FOR STRESS PERIOD    9   TIME STEP    8
 
 SOLVING FOR HEAD 
                                                   Max.-Head-Change                         Max.-Flux-Residual
  Residual-Control   Outer-Iter.   Inner-Iter.     Column Row Layer    Maximum-Head-Change  Column Row Layer    Maximum-Flux-Residual          L2-NORM 
          0                 1           2             4   13     1       0.1525021832E-01       4   13    1         0.8783326394E+00      0.1768761890E+01
          0                 2           2             4   13     1      -0.1694632501E-01       4   13    1        -0.9960691896E+00      0.1953982828E+01
          0                 3           2             4    7     1      -0.5429645789E-02       5    7    1        -0.2928268323E+00      0.7259900691E+00
          0                 4           2             4    7     1       0.1505277981E-03       4    7    1         0.8326462706E-02      0.1450882726E-01
          0                 5           2             4    7     1      -0.6850512461E-03       4    7    1        -0.3781699879E-01      0.9167730603E-01
          0                 6           1             4    7     1       0.2725882687E-04       4    7    1         0.1579438400E-02      0.2404407654E-02

    ------------------------------------------------
       NWT REQUIRED            6 OUTER ITERATIONS 
       AND A TOTAL OF         11 INNER ITERATIONS.
    ------------------------------------------------

 NO OUTPUT CONTROL FOR STRESS PERIOD    9   TIME STEP    9
 
 SOLVING FOR HEAD 
                                                   Max.-Head-Change                         Max.-Flux-Residual
  Residual-Control   Outer-Iter.   Inner-Iter.     Column Row Layer    Maximum-Head-Change  Column Row Layer    Maximum-Flux-Residual          L2-NORM 
          0                 1           2             4   13     1       0.1528565986E-01       4   13    1         0.8803450210E+00      0.1778789535E+01
          0                 2           2             4   13     1      -0.1695290073E-01       4   13    1        -0.9964523653E+00      0.1971182161E+01
          0                 3           2             4    7     1      -0.5577829281E-02       4    8    1        -0.3010555735E+00      0.7495946573E+00
          0                 4           2             4    7     1       0.1541284957E-03       4    7    1         0.8641830406E-02      0.1227479437E-01
          0                 5           2             4    7     1      -0.7048402848E-03       4    7    1        -0.3891752857E-01      0.9409970265E-01
          0                 6           1             4    7     1       0.2804625038E-04       4    7    1         0.1641222121E-02      0.1956049888E-02

    ------------------------------------------------
       NWT REQUIRED            6 OUTER ITERATIONS 
       AND A TOTAL OF         11 INNER ITERATIONS.
    ------------------------------------------------

 NO OUTPUT CONTROL FOR STRESS PERIOD    9   TIME STEP   10
 
 SOLVING FOR HEAD 
                                                   Max.-Head-Change                         Max.-Flux-Residual
  Residual-Control   Outer-Iter.   Inner-Iter.     Column Row Layer    Maximum-Head-Change  Column Row Layer    Maximum-Flux-Residual          L2-NORM 
          0                 1           2             4   13     1       0.1531840463E-01       4   13    1         0.8822031833E+00      0.1791345314E+01
          0                 2           2             4   13     1      -0.1695903092E-01       4   13    1        -0.9968094801E+00      0.1988877017E+01
          0                 3           2             4    7     1      -0.5725062779E-02       4    8    1        -0.3092149524E+00      0.7689237304E+00
          0                 4           2             4    7     1       0.1576234212E-03       4    7    1         0.8838472732E-02      0.1240522950E-01
          0                 5           2             4    7     1      -0.7246675039E-03       4    7    1        -0.4001215010E-01      0.9675183190E-01
          0                 6           1             4    7     1       0.2883519381E-04       4    7    1         0.1687386373E-02      0.2011109227E-02

    ------------------------------------------------
       NWT REQUIRED            6 OUTER ITERATIONS 
       AND A TOTAL OF         11 INNER ITERATIONS.
    ------------------------------------------------

 NO OUTPUT CONTROL FOR STRESS PERIOD    9   TIME STEP   11
 
 SOLVING FOR HEAD 
                                                   Max.-Head-Change                         Max.-Flux-Residual
  Residual-Control   Outer-Iter.   Inner-Iter.     Column Row Layer    Maximum-Head-Change  Column Row Layer    Maximum-Flux-Residual          L2-NORM 
          0                 1           2             4   13     1       0.1534876614E-01       4   13    1         0.8839248690E+00      0.1806366494E+01
          0                 2           2             4   13     1      -0.1696477827E-01       4   13    1        -0.9971441808E+00      0.2007067504E+01
          0                 3           2             4    7     1      -0.5871409387E-02       4    8    1        -0.3173290179E+00      0.7881668261E+00
          0                 4           2             4    7     1       0.1610320695E-03       4    7    1         0.9030417159E-02      0.1253477727E-01
          0                 5           2             4    7     1      -0.7444975034E-03       4    7    1        -0.4110691535E-01      0.9940473167E-01
          0                 6           1             4    7     1       0.2962424776E-04       4    7    1         0.1733556923E-02      0.2066180756E-02

    ------------------------------------------------
       NWT REQUIRED            6 OUTER ITERATIONS 
       AND A TOTAL OF         11 INNER ITERATIONS.
    ------------------------------------------------

 NO OUTPUT CONTROL FOR STRESS PERIOD    9   TIME STEP   12
 
 SOLVING FOR HEAD 
                                                   Max.-Head-Change                         Max.-Flux-Residual
  Residual-Control   Outer-Iter.   Inner-Iter.     Column Row Layer    Maximum-Head-Change  Column Row Layer    Maximum-Flux-Residual          L2-NORM 
          0                 1           2             4   13     1       0.1537687399E-01       4   13    1         0.8855176625E+00      0.2398228669E+01
          0                 2           2             4   13     1      -0.1684708783E-01       4   13    1        -0.9902761924E+00      0.2547748618E+01
          0                 3           2             4    7     1      -0.9238205933E-02       4    7    1        -0.4959097906E+00      0.1221144075E+01
          0                 4           2             4    7     1       0.1278750349E-03       7   13    1         0.7283378934E-02      0.1906613899E-01
          0                 5           2             4    7     1      -0.9656842133E-03       4    7    1        -0.5476898431E-01      0.1341485752E+00
          0                 6           1             4    7     1       0.1191613884E-04       4    7    1         0.6946631815E-03      0.1701537959E-02

    ------------------------------------------------
       NWT REQUIRED            6 OUTER ITERATIONS 
       AND A TOTAL OF         11 INNER ITERATIONS.
    ------------------------------------------------

 NO OUTPUT CONTROL FOR STRESS PERIOD    9   TIME STEP   13
 
 SOLVING FOR HEAD 
                                                   Max.-Head-Change                         Max.-Flux-Residual
  Residual-Control   Outer-Iter.   Inner-Iter.     Column Row Layer    Maximum-Head-Change  Column Row Layer    Maximum-Flux-Residual          L2-NORM 
          0                 1           2             4   13     1       0.1540300043E-01       4   13    1         0.8869972485E+00      0.2412186109E+01
          0                 2           2             4   13     1      -0.1679092145E-01       4   13    1        -0.9869978088E+00      0.2533814208E+01
          0                 3           2             4    7     1      -0.9245444382E-02       4    7    1        -0.4962973117E+00      0.1221554356E+01
          0                 4           2             7   13     1       0.1270853523E-03       7   13    1         0.7283128798E-02      0.1484751599E-01
          0                 5           2             4    7     1      -0.1040962325E-02       4    7    1        -0.5903835848E-01      0.1446064697E+00
          0                 6           1             4    7     1       0.1284503921E-04       4    7    1         0.7488139095E-03      0.1834141469E-02

    ------------------------------------------------
       NWT REQUIRED            6 OUTER ITERATIONS 
       AND A TOTAL OF         11 INNER ITERATIONS.
    ------------------------------------------------

 NO OUTPUT CONTROL FOR STRESS PERIOD    9   TIME STEP   14
 
 SOLVING FOR HEAD 
                                                   Max.-Head-Change                         Max.-Flux-Residual
  Residual-Control   Outer-Iter.   Inner-Iter.     Column Row Layer    Maximum-Head-Change  Column Row Layer    Maximum-Flux-Residual          L2-NORM 
          0                 1           2             4   13     1       0.1542711739E-01       4   13    1         0.8883619404E+00      0.2425790733E+01
          0                 2           2             4   13     1      -0.1673438875E-01       4   13    1        -0.9836977974E+00      0.2520159817E+01
          0                 3           2             4    7     1      -0.9253501005E-02       4    7    1        -0.4967287660E+00      0.1222107823E+01
          0                 4           2             7   13     1       0.1270905973E-03       7   13    1         0.7282930875E-02      0.1126477547E-01
          0                 5           2             4    7     1      -0.1113603989E-02       4    7    1        -0.6315820362E-01      0.1546980959E+00
          0                 6           1             4    7     1       0.1374140636E-04       4    7    1         0.8009357530E-03      0.1962047340E-02

    ------------------------------------------------
       NWT REQUIRED            6 OUTER ITERATIONS 
       AND A TOTAL OF         11 INNER ITERATIONS.
    ------------------------------------------------

 NO OUTPUT CONTROL FOR STRESS PERIOD    9   TIME STEP   15
 
 SOLVING FOR HEAD 
                                                   Max.-Head-Change                         Max.-Flux-Residual
  Residual-Control   Outer-Iter.   Inner-Iter.     Column Row Layer    Maximum-Head-Change  Column Row Layer    Maximum-Flux-Residual          L2-NORM 
          0                 1           2             4   13     1       0.1544973158E-01       4   13    1         0.8896410146E+00      0.2439057127E+01
          0                 2           2             4   13     1      -0.1667754925E-01       4   13    1        -0.9803797044E+00      0.2506797417E+01
          0                 3           2             4    7     1      -0.9262053655E-02       4    7    1        -0.4971868546E+00      0.1222763047E+01
          0                 4           2             7   13     1       0.1271075946E-03       7   13    1         0.7283405357E-02      0.8749471316E-02
          0                 5           2             4    7     1      -0.1183885167E-02       4    7    1        -0.6714417229E-01      0.1644617922E+00
          0                 6           1             4    7     1       0.1460864624E-04       4    7    1         0.8514834649E-03      0.2085878942E-02

    ------------------------------------------------
       NWT REQUIRED            6 OUTER ITERATIONS 
       AND A TOTAL OF         11 INNER ITERATIONS.
    ------------------------------------------------

 NO OUTPUT CONTROL FOR STRESS PERIOD    9   TIME STEP   16
 
 SOLVING FOR HEAD 
                                                   Max.-Head-Change                         Max.-Flux-Residual
  Residual-Control   Outer-Iter.   Inner-Iter.     Column Row Layer    Maximum-Head-Change  Column Row Layer    Maximum-Flux-Residual          L2-NORM 
          0                 1           2             4   13     1       0.1547063008E-01       4   13    1         0.8908220496E+00      0.2451995865E+01
          0                 2           2             4   13     1      -0.1665189675E-01       4   13    1        -0.9788816334E+00      0.2498221376E+01
          0                 3           2             4    7     1      -0.9301391557E-02       4    7    1        -0.4992974058E+00      0.1227705537E+01
          0                 4           2             7   13     1       0.1269891979E-03       7   13    1         0.7276386773E-02      0.8172734670E-02
          0                 5           2             4    7     1      -0.1214686279E-02       4    7    1        -0.6889102723E-01      0.1687408112E+00
          0                 6           1             4    7     1       0.1498871879E-04       4    7    1         0.8736360487E-03      0.2140150133E-02

    ------------------------------------------------
       NWT REQUIRED            6 OUTER ITERATIONS 
       AND A TOTAL OF         11 INNER ITERATIONS.
    ------------------------------------------------

 NO OUTPUT CONTROL FOR STRESS PERIOD    9   TIME STEP   17
 
 SOLVING FOR HEAD 
                                                   Max.-Head-Change                         Max.-Flux-Residual
  Residual-Control   Outer-Iter.   Inner-Iter.     Column Row Layer    Maximum-Head-Change  Column Row Layer    Maximum-Flux-Residual          L2-NORM 
          0                 1           2             4   13     1       0.1549016098E-01       4   13    1         0.8919251456E+00      0.2464637822E+01
          0                 2           2             4   13     1      -0.1664404873E-01       4   13    1        -0.9784224454E+00      0.2492674848E+01
          0                 3           2             4    7     1      -0.9354095244E-02       4    7    1        -0.5021253937E+00      0.1234536148E+01
          0                 4           2             7   13     1       0.1268121351E-03       7   13    1         0.7266159350E-02      0.8080415774E-02
          0                 5           2             4    7     1      -0.1223794391E-02       4    7    1        -0.6940756366E-01      0.1700061810E+00
          0                 6           1             4    7     1       0.1510110880E-04       4    7    1         0.8801864574E-03      0.2156198919E-02

    ------------------------------------------------
       NWT REQUIRED            6 OUTER ITERATIONS 
       AND A TOTAL OF         11 INNER ITERATIONS.
    ------------------------------------------------

 NO OUTPUT CONTROL FOR STRESS PERIOD    9   TIME STEP   18
 
 SOLVING FOR HEAD 
                                                   Max.-Head-Change                         Max.-Flux-Residual
  Residual-Control   Outer-Iter.   Inner-Iter.     Column Row Layer    Maximum-Head-Change  Column Row Layer    Maximum-Flux-Residual          L2-NORM 
          0                 1           2             4   13     1       0.1550834713E-01       4   13    1         0.8929515860E+00      0.2476985902E+01
          0                 2           2             4   13     1      -0.1663684821E-01       4   13    1        -0.9780015618E+00      0.2487115228E+01
          0                 3           2             4    7     1      -0.9406783136E-02       4    7    1        -0.5049525489E+00      0.1241369024E+01
          0                 4           2             7   13     1       0.1266401610E-03       7   13    1         0.7256222957E-02      0.8003952895E-02
          0                 5           2             4    7     1      -0.1232678800E-02       4    7    1        -0.6991141272E-01      0.1712404713E+00
          0                 6           1             4    7     1       0.1521073873E-04       4    7    1         0.8865759701E-03      0.2171853381E-02

    ------------------------------------------------
       NWT REQUIRED            6 OUTER ITERATIONS 
       AND A TOTAL OF         11 INNER ITERATIONS.
    ------------------------------------------------

 NO OUTPUT CONTROL FOR STRESS PERIOD    9   TIME STEP   19
 
 SOLVING FOR HEAD 
                                                   Max.-Head-Change                         Max.-Flux-Residual
  Residual-Control   Outer-Iter.   Inner-Iter.     Column Row Layer    Maximum-Head-Change  Column Row Layer    Maximum-Flux-Residual          L2-NORM 
          0                 1           2             4   13     1       0.1552528625E-01       4   13    1         0.8939069226E+00      0.2489046407E+01
          0                 2           2             4   13     1      -0.1662900849E-01       4   13    1        -0.9775430886E+00      0.2481526716E+01
          0                 3           2             4    7     1      -0.9459442547E-02       4    7    1        -0.5077781844E+00      0.1248199430E+01
          0                 4           2             7   13     1       0.1264736735E-03       7   13    1         0.7246655748E-02      0.7942999704E-02
          0                 5           2             4    7     1      -0.1241504626E-02       4    7    1        -0.7041193910E-01      0.1724666212E+00
          0                 6           1             4    7     1       0.1531964594E-04       4    7    1         0.8929233645E-03      0.2187406855E-02

    ------------------------------------------------
       NWT REQUIRED            6 OUTER ITERATIONS 
       AND A TOTAL OF         11 INNER ITERATIONS.
    ------------------------------------------------

 NO OUTPUT CONTROL FOR STRESS PERIOD    9   TIME STEP   20
 
 SOLVING FOR HEAD 
                                                   Max.-Head-Change                         Max.-Flux-Residual
  Residual-Control   Outer-Iter.   Inner-Iter.     Column Row Layer    Maximum-Head-Change  Column Row Layer    Maximum-Flux-Residual          L2-NORM 
          0                 1           2             4   13     1       0.1554123459E-01       4   13    1         0.8948061813E+00      0.2500831813E+01
          0                 2           2             4   13     1      -0.1662104384E-01       4   13    1        -0.9770774094E+00      0.2475922944E+01
          0                 3           2             4    7     1      -0.9512112642E-02       4    7    1        -0.5106044125E+00      0.1255033213E+01
          0                 4           2             7   13     1       0.1263082883E-03       7   13    1         0.7237095311E-02      0.7899369509E-02
          0                 5           2             4    7     1      -0.1250466895E-02       4    7    1        -0.7092020385E-01      0.1737117238E+00
          0                 6           1             4    7     1       0.1543023630E-04       4    7    1         0.8993688725E-03      0.2203196205E-02

    ------------------------------------------------
       NWT REQUIRED            6 OUTER ITERATIONS 
       AND A TOTAL OF         11 INNER ITERATIONS.
    ------------------------------------------------

 NO OUTPUT CONTROL FOR STRESS PERIOD    9   TIME STEP   21
 
 SOLVING FOR HEAD 
                                                   Max.-Head-Change                         Max.-Flux-Residual
  Residual-Control   Outer-Iter.   Inner-Iter.     Column Row Layer    Maximum-Head-Change  Column Row Layer    Maximum-Flux-Residual          L2-NORM 
          0                 1           2             4   13     1       0.1555596078E-01       4   13    1         0.8956356004E+00      0.2512349952E+01
          0                 2           2             4   13     1      -0.1661280708E-01       4   13    1        -0.9765957532E+00      0.2470287756E+01
          0                 3           2             4    7     1      -0.9564741448E-02       4    7    1        -0.5134284333E+00      0.1261863896E+01
          0                 4           2             7   13     1       0.1261491574E-03       7   13    1         0.7227894806E-02      0.7872913180E-02
          0                 5           2             4    7     1      -0.1330519540E-02       4    7    1        -0.7141618915E-01      0.1749218013E+00
          0                 6           1             4    7     1       0.9064226106E-04       5    8    1         0.5001654295E-02      0.1225134124E-01

    ------------------------------------------------
       NWT REQUIRED            6 OUTER ITERATIONS 
       AND A TOTAL OF         11 INNER ITERATIONS.
    ------------------------------------------------

 NO OUTPUT CONTROL FOR STRESS PERIOD    9   TIME STEP   22
 
 SOLVING FOR HEAD 
                                                   Max.-Head-Change                         Max.-Flux-Residual
  Residual-Control   Outer-Iter.   Inner-Iter.     Column Row Layer    Maximum-Head-Change  Column Row Layer    Maximum-Flux-Residual          L2-NORM 
          0                 1           2             4   13     1       0.1556985360E-01       4   13    1         0.8964178232E+00      0.2523618358E+01
          0                 2           2             4   13     1      -0.1660445841E-01       4   13    1        -0.9761076157E+00      0.2464640567E+01
          0                 3           2             4    7     1      -0.9617355874E-02       4    7    1        -0.5162517040E+00      0.1268694593E+01
          0                 4           2             7   13     1       0.1259923887E-03       7   13    1         0.7218828361E-02      0.7863254358E-02
          0                 5           2             4    7     1      -0.1339697728E-02       4    7    1        -0.7190880021E-01      0.1761286317E+00
          0                 6           1             4    7     1       0.9126752956E-04       5    8    1         0.5036166870E-02      0.1233586665E-01

    ------------------------------------------------
       NWT REQUIRED            6 OUTER ITERATIONS 
       AND A TOTAL OF         11 INNER ITERATIONS.
    ------------------------------------------------

 NO OUTPUT CONTROL FOR STRESS PERIOD    9   TIME STEP   23
 
 SOLVING FOR HEAD 
                                                   Max.-Head-Change                         Max.-Flux-Residual
  Residual-Control   Outer-Iter.   Inner-Iter.     Column Row Layer    Maximum-Head-Change  Column Row Layer    Maximum-Flux-Residual          L2-NORM 
          0                 1           2             4   13     1       0.1558284863E-01       4   13    1         0.8971490226E+00      0.2534639075E+01
          0                 2           2             4   13     1      -0.1659594497E-01       4   13    1        -0.9756098656E+00      0.2458973588E+01
          0                 3           2             4    7     1      -0.9669909205E-02       4    7    1        -0.5190716994E+00      0.1275519409E+01
          0                 4           2             7   13     1       0.1258405477E-03       7   13    1         0.7210043833E-02      0.7869353293E-02
          0                 5           2             4    7     1      -0.1348801395E-02       4    7    1        -0.7239741122E-01      0.1773256620E+00
          0                 6           1             4    7     1       0.9188772057E-04       5    8    1         0.5070399107E-02      0.1241970565E-01

    ------------------------------------------------
       NWT REQUIRED            6 OUTER ITERATIONS 
       AND A TOTAL OF         11 INNER ITERATIONS.
    ------------------------------------------------

 NO OUTPUT CONTROL FOR STRESS PERIOD    9   TIME STEP   24
 
 SOLVING FOR HEAD 
                                                   Max.-Head-Change                         Max.-Flux-Residual
  Residual-Control   Outer-Iter.   Inner-Iter.     Column Row Layer    Maximum-Head-Change  Column Row Layer    Maximum-Flux-Residual          L2-NORM 
          0                 1           2             4   13     1       0.1559513371E-01       4   13    1         0.8978399486E+00      0.2545429948E+01
          0                 2           2             4   13     1      -0.1658732946E-01       4   13    1        -0.9751061859E+00      0.2453297677E+01
          0                 3           2             4    7     1      -0.9722400324E-02       4    7    1        -0.5218883710E+00      0.1282338278E+01
          0                 4           2             7   13     1       0.1256938198E-03       7   13    1         0.7201551882E-02      0.7893362145E-02
          0                 5           2             4    7     1      -0.1357897740E-02       4    7    1        -0.7288562925E-01      0.1785217266E+00
          0                 6           1             4    7     1       0.9250741337E-04       5    8    1         0.5104603712E-02      0.1250347700E-01

    ------------------------------------------------
       NWT REQUIRED            6 OUTER ITERATIONS 
       AND A TOTAL OF         11 INNER ITERATIONS.
    ------------------------------------------------

 NO OUTPUT CONTROL FOR STRESS PERIOD    9   TIME STEP   25
 
 SOLVING FOR HEAD 
                                                   Max.-Head-Change                         Max.-Flux-Residual
  Residual-Control   Outer-Iter.   Inner-Iter.     Column Row Layer    Maximum-Head-Change  Column Row Layer    Maximum-Flux-Residual          L2-NORM 
          0                 1           2             4   13     1       0.1560654913E-01       4   13    1         0.8984815048E+00      0.2555996996E+01
          0                 2           2             4   13     1      -0.1657854644E-01       4   13    1        -0.9745927253E+00      0.2447605264E+01
          0                 3           2             4    7     1      -0.9774913686E-02       4    7    1        -0.5247062493E+00      0.1289161904E+01
          0                 4           2             7   13     1       0.1255421366E-03       7   13    1         0.7192778140E-02      0.7933665095E-02
          0                 5           2             4    7     1      -0.1366920750E-02       4    7    1        -0.7336991094E-01      0.1797081452E+00
          0                 6           1             4    7     1       0.9312211033E-04       5    8    1         0.5138532365E-02      0.1258657316E-01

    ------------------------------------------------
       NWT REQUIRED            6 OUTER ITERATIONS 
       AND A TOTAL OF         11 INNER ITERATIONS.
    ------------------------------------------------

 NO OUTPUT CONTROL FOR STRESS PERIOD    9   TIME STEP   26
 
 SOLVING FOR HEAD 
                                                   Max.-Head-Change                         Max.-Flux-Residual
  Residual-Control   Outer-Iter.   Inner-Iter.     Column Row Layer    Maximum-Head-Change  Column Row Layer    Maximum-Flux-Residual          L2-NORM 
          0                 1           2             4   13     1       0.1561731877E-01       4   13    1         0.8990864502E+00      0.2566350700E+01
          0                 2           2             4   13     1      -0.1656973202E-01       4   13    1        -0.9740775271E+00      0.2441903199E+01
          0                 3           2             4    7     1      -0.9827380281E-02       4    7    1        -0.5275216333E+00      0.1295981339E+01
          0                 4           2             7   13     1       0.1254060773E-03       7   13    1         0.7184897126E-02      0.7989878713E-02
          0                 5           2             4    7     1      -0.1375955569E-02       4    7    1        -0.7385482652E-01      0.1808961142E+00
          0                 6           1             4    7     1       0.9373761129E-04       5    8    1         0.5172505284E-02      0.1266977705E-01

    ------------------------------------------------
       NWT REQUIRED            6 OUTER ITERATIONS 
       AND A TOTAL OF         11 INNER ITERATIONS.
    ------------------------------------------------

 NO OUTPUT CONTROL FOR STRESS PERIOD    9   TIME STEP   27
 
 SOLVING FOR HEAD 
                                                   Max.-Head-Change                         Max.-Flux-Residual
  Residual-Control   Outer-Iter.   Inner-Iter.     Column Row Layer    Maximum-Head-Change  Column Row Layer    Maximum-Flux-Residual          L2-NORM 
          0                 1           2             4   13     1       0.1562742492E-01       4   13    1         0.8996537186E+00      0.2576488121E+01
          0                 2           2             4   13     1      -0.1656069059E-01       4   13    1        -0.9735489576E+00      0.2436183673E+01
          0                 3           2             4    7     1      -0.9879821078E-02       4    7    1        -0.5303356433E+00      0.1302799417E+01
          0                 4           2             7   13     1       0.1252692259E-03       7   13    1         0.7176973053E-02      0.8062094659E-02
          0                 5           2             4    7     1      -0.1384899205E-02       4    7    1        -0.7433484778E-01      0.1820720909E+00
          0                 6           1             4    7     1       0.9434690082E-04       5    8    1         0.5206135261E-02      0.1275214166E-01

    ------------------------------------------------
       NWT REQUIRED            6 OUTER ITERATIONS 
       AND A TOTAL OF         11 INNER ITERATIONS.
    ------------------------------------------------

 NO OUTPUT CONTROL FOR STRESS PERIOD    9   TIME STEP   28
 
 SOLVING FOR HEAD 
                                                   Max.-Head-Change                         Max.-Flux-Residual
  Residual-Control   Outer-Iter.   Inner-Iter.     Column Row Layer    Maximum-Head-Change  Column Row Layer    Maximum-Flux-Residual          L2-NORM 
          0                 1           2             4   13     1       0.1563697294E-01       4   13    1         0.9001895534E+00      0.2586428414E+01
          0                 2           2             4   13     1      -0.1655158038E-01       4   13    1        -0.9730164584E+00      0.2430457672E+01
          0                 3           2             4    7     1      -0.9932187263E-02       4    7    1        -0.5331456615E+00      0.1309609481E+01
          0                 4           2             7   13     1       0.1251333280E-03       7   13    1         0.7169101410E-02      0.8150801178E-02
          0                 5           2             4    7     1      -0.1393754926E-02       4    7    1        -0.7481015020E-01      0.1832365056E+00
          0                 6           1             4    7     1       0.9495019998E-04       5    8    1         0.5239434533E-02      0.1283369726E-01

    ------------------------------------------------
       NWT REQUIRED            6 OUTER ITERATIONS 
       AND A TOTAL OF         11 INNER ITERATIONS.
    ------------------------------------------------

 NO OUTPUT CONTROL FOR STRESS PERIOD    9   TIME STEP   29
 
 SOLVING FOR HEAD 
                                                   Max.-Head-Change                         Max.-Flux-Residual
  Residual-Control   Outer-Iter.   Inner-Iter.     Column Row Layer    Maximum-Head-Change  Column Row Layer    Maximum-Flux-Residual          L2-NORM 
          0                 1           2             4   13     1       0.1564597645E-01       4   13    1         0.9006945321E+00      0.2596172286E+01
          0                 2           2             4   13     1      -0.1654238548E-01       4   13    1        -0.9724790342E+00      0.2424723734E+01
          0                 3           2             4    7     1      -0.9984537013E-02       4    7    1        -0.5359548101E+00      0.1316419315E+01
          0                 4           2             7   13     1       0.1250027191E-03       7   13    1         0.7161532293E-02      0.8253475122E-02
          0                 5           2             4    7     1      -0.1402650034E-02       4    7    1        -0.7528756673E-01      0.1844060961E+00
          0                 6           1             4    7     1       0.9555618381E-04       5    8    1         0.5272881771E-02      0.1291561328E-01

    ------------------------------------------------
       NWT REQUIRED            6 OUTER ITERATIONS 
       AND A TOTAL OF         11 INNER ITERATIONS.
    ------------------------------------------------

 NO OUTPUT CONTROL FOR STRESS PERIOD    9   TIME STEP   30



 STREAM LISTING     PERIOD      9   STEP       30

 LAYER ROW COL. STREAM  RCH.  FLOW INTO     FLOW TO   FLOW OUT OF   OVRLND.     DIRECT     STREAM       STREAM     STREAM     STREAM   STREAMBED  STREAMBED
                SEG.NO.  NO.  STRM. RCH.    AQUIFER    STRM. RCH.    RUNOFF     PRECIP       ET          HEAD       DEPTH      WIDTH   CONDCTNC.   GRADIENT

   1    1    1     1     1    4.5750E+01  3.2289E-01   4.5427E+01  0.000E+00  0.000E+00  0.000E+00  1.09442E+03  1.372E+00  1.641E+01  7.386E-02  1.457E+00
   1    2    2     1     2    4.5427E+01  5.0023E-01   4.4927E+01  0.000E+00  0.000E+00  0.000E+00  1.08943E+03  1.369E+00  1.636E+01  1.145E-01  1.456E+00
   1    3    3     1     3    4.4927E+01  4.2678E-01   4.4500E+01  0.000E+00  0.000E+00  0.000E+00  1.08378E+03  1.366E+00  1.629E+01  9.776E-02  1.455E+00
   1    3    4     1     4    4.4500E+01  3.9314E-01   4.4107E+01  0.000E+00  0.000E+00  0.000E+00  1.07877E+03  1.363E+00  1.624E+01  9.011E-02  1.454E+00
   1    4    5     2     1    4.2107E+01  3.6245E-01   4.1744E+01  0.000E+00  0.000E+00  0.000E+00  1.07358E+03  1.647E+00  1.200E+01  7.800E-02  1.549E+00
   1    5    6     2     2    4.1744E+01  2.7835E-01   4.1466E+01  0.000E+00  0.000E+00  0.000E+00  1.06815E+03  1.639E+00  1.200E+01  6.000E-02  1.546E+00
   1    6    6     2     3    4.1466E+01  2.7796E-01   4.1188E+01  0.000E+00  0.000E+00  0.000E+00  1.06343E+03  1.633E+00  1.200E+01  6.000E-02  1.544E+00
   1    7    6     2     4    4.1188E+01  2.7756E-01   4.0910E+01  0.000E+00  0.000E+00  0.000E+00  1.05870E+03  1.626E+00  1.200E+01  6.000E-02  1.542E+00
   1    8    6     2     5    4.0910E+01  2.7717E-01   4.0633E+01  0.000E+00  0.000E+00  0.000E+00  1.05398E+03  1.619E+00  1.200E+01  6.000E-02  1.540E+00
   1    3    5     3     1    2.0000E+00  2.8252E-01   1.7175E+00  0.000E+00  0.000E+00  0.000E+00  1.07555E+03  1.909E+00  9.636E+00  7.227E-02  1.955E+00
   1    3    6     3     2    1.7175E+00  2.4905E-01   1.4684E+00  0.000E+00  0.000E+00  0.000E+00  1.07264E+03  1.727E+00  8.909E+00  6.682E-02  1.864E+00
   1    3    7     3     3    1.4684E+00  1.9718E-01   1.2712E+00  0.000E+00  0.000E+00  0.000E+00  1.06987E+03  1.555E+00  8.218E+00  5.547E-02  1.777E+00
   1    4    8     3     4    1.2712E+00  2.2567E-01   1.0456E+00  0.000E+00  0.000E+00  0.000E+00  1.06682E+03  1.364E+00  7.455E+00  6.709E-02  1.682E+00
   1    5    8     3     5    1.0456E+00  1.5790E-01   8.8768E-01  0.000E+00  0.000E+00  0.000E+00  1.06362E+03  1.164E+00  6.655E+00  4.991E-02  1.582E+00
   1    6    8     3     6    8.8768E-01  5.5980E-02   8.3170E-01  0.000E+00  0.000E+00  0.000E+00  1.06158E+03  1.036E+00  6.145E+00  1.844E-02  1.518E+00
   1    5   10     4     1    1.0000E+01  9.0919E-02   9.9091E+00  0.000E+00  0.000E+00  0.000E+00  1.07836E+03  6.368E-01  1.000E+01  2.500E-02  1.212E+00
   1    5    9     4     2    9.9091E+00  1.8158E-01   9.7275E+00  0.000E+00  0.000E+00  0.000E+00  1.07154E+03  6.315E-01  1.000E+01  5.000E-02  1.211E+00
   1    6    8     4     3    9.7275E+00  1.2689E-01   9.6006E+00  0.000E+00  0.000E+00  0.000E+00  1.06381E+03  6.256E-01  1.000E+01  3.500E-02  1.209E+00
   1    6    8     5     1    1.0432E+01  2.2686E-01   1.0205E+01  0.000E+00  0.000E+00  0.000E+00  1.05868E+03  6.790E-01  1.542E+01  6.166E-02  1.226E+00
   1    7    7     5     2    1.0205E+01  2.7894E-01   9.9265E+00  0.000E+00  0.000E+00  0.000E+00  1.05417E+03  6.732E-01  1.519E+01  7.594E-02  1.224E+00
   1    8    7     5     3    9.9265E+00  1.9221E-01   9.7343E+00  0.000E+00  0.000E+00  0.000E+00  1.04992E+03  6.676E-01  1.497E+01  5.241E-02  1.223E+00
   1    8    6     5     4    9.7343E+00  1.3577E-01   9.5985E+00  0.000E+00  0.000E+00  0.000E+00  1.04691E+03  6.637E-01  1.482E+01  3.706E-02  1.221E+00
   1    9    6     6     1    9.5985E+00  2.2097E-01   9.3776E+00  0.000E+00  0.000E+00  0.000E+00  1.04341E+03  6.828E-01  1.200E+01  6.000E-02  1.228E+00
   1   10    7     6     2    9.3776E+00  2.2039E-01   9.1572E+00  0.000E+00  0.000E+00  0.000E+00  1.03885E+03  6.732E-01  1.200E+01  6.000E-02  1.224E+00
   1   11    7     6     3    9.1572E+00  2.1981E-01   8.9374E+00  0.000E+00  0.000E+00  0.000E+00  1.03430E+03  6.636E-01  1.200E+01  6.000E-02  1.221E+00
   1   12    7     6     4    8.9374E+00  2.1923E-01   8.7181E+00  0.000E+00  0.000E+00  0.000E+00  1.02974E+03  6.539E-01  1.200E+01  6.000E-02  1.218E+00
   1   13    7     6     5    8.7181E+00 -1.2675E-01   8.8449E+00  0.000E+00  0.000E+00  0.000E+00  1.02656E+03  6.518E-01  1.200E+01  2.400E-01 -1.760E-01
   1   14    9     7     1    1.5000E+02  1.3360E+00   1.4866E+02  0.000E+00  0.000E+00  0.000E+00  1.03987E+03  2.288E+00  5.529E+01  5.593E-01  7.962E-01
   1   13    8     7     2    1.4866E+02  1.8238E+00   1.4684E+02  0.000E+00  0.000E+00  0.000E+00  1.03478E+03  2.279E+00  5.526E+01  6.148E-01  9.889E-01
   1   13    7     7     3    1.4684E+02  1.4525E+00   1.4539E+02  0.000E+00  0.000E+00  0.000E+00  1.02969E+03  2.271E+00  5.522E+01  5.585E-01  8.670E-01
   1   13    6     8     1    1.5423E+02  8.0476E-01   1.5343E+02  0.000E+00  0.000E+00  0.000E+00  1.02472E+03  2.844E+00  4.123E+01  4.202E-01  6.384E-01
   1   13    5     8     2    1.5343E+02  8.0841E-02   1.5335E+02  0.000E+00  0.000E+00  0.000E+00  1.01847E+03  2.841E+00  4.119E+01  4.197E-01  6.420E-02
   1   13    4     8     3    1.5335E+02 -2.7328E+00   1.5608E+02  0.000E+00  0.000E+00  0.000E+00  1.01222E+03  2.850E+00  4.132E+01  4.211E+00 -2.163E-01
   1   13    3     8     4    1.5608E+02 -3.7862E+00   1.5987E+02  0.000E+00  0.000E+00  0.000E+00  1.00600E+03  2.872E+00  4.165E+01  4.244E+00 -2.974E-01
   1   13    2     8     5    1.5987E+02 -2.6237E+00   1.6249E+02  0.000E+00  0.000E+00  0.000E+00  9.99769E+02  2.894E+00  4.196E+01  4.276E+00 -2.045E-01
   1   13    1     8     6    1.6249E+02 -2.0105E+00   1.6450E+02  0.000E+00  0.000E+00  0.000E+00  9.94784E+02  2.909E+00  4.219E+01  2.579E+00 -2.598E-01
   1    8    6     9     1    4.0633E+01  0.0000E+00   4.0633E+01  0.000E+00  0.000E+00  0.000E+00  1.08401E+03  5.255E+00  4.000E+00  0.000E+00  2.752E+00
   1    8    5     9     2    4.0633E+01  0.0000E+00   4.0633E+01  0.000E+00  0.000E+00  0.000E+00  1.08351E+03  5.255E+00  4.000E+00  0.000E+00  2.752E+00





UNSATURATED ZONE PACKAGE VOLUMETRIC BUDGET FOR  TIME STEP    30 STRESS PERIOD    9
  ------------------------------------------------------------------------------



     CUMULATIVE VOLUMES      L**3       RATES FOR THIS TIME STEP      L**3/T
     ------------------                 ------------------------

           IN:                                      IN:
           ---                                      ---
        INFILTRATION =   464459384.6443          INFILTRATION =          52.9925

          OUT:                                     OUT:
          ----                                     ----
              UZF ET =   443930055.3833                UZF ET =          52.8575
        UZF RECHARGE =       73224.0000          UZF RECHARGE =       0.0000E+00

            IN - OUT =    20456105.2610              IN - OUT =           0.1350

          STORAGE:                                 STORAGE:
          --------                                 --------
      STORAGE CHANGE =    20456098.1383        STORAGE CHANGE =           0.1350

 PERCENT DISCREPANCY IS DIFFERENCE BETWEEN IN-OUT MINUS CHANGE IN STORAGE
 DIVIDED BY THE AVERAGE OF IN AND OUT TIMES 100

 PERCENT DISCREPANCY =           0.00     PERCENT DISCREPANCY =           0.00






1
  VOLUMETRIC BUDGET FOR ENTIRE MODEL AT END OF TIME STEP   30, STRESS PERIOD   9
  ------------------------------------------------------------------------------

     CUMULATIVE VOLUMES      L**3       RATES FOR THIS TIME STEP      L**3/T
     ------------------                 ------------------------

           IN:                                      IN:
           ---                                      ---
               AG WELLS  =    44426692.0000                 AG WELLS  =           7.9511
      DIVERSION SEGMENTS =   327219200.0000        DIVERSION SEGMENTS =          40.6331
           GW IRRIGATION =           0.0000             GW IRRIGATION =           0.0000
           SW IRRIGATION =           0.0000             SW IRRIGATION =           0.0000
        SYSTEM LOSSES GW =           0.0000          SYSTEM LOSSES GW =           0.0000
        SYSTEM LOSSES SW =           0.0000          SYSTEM LOSSES SW =           0.0000

                TOTAL IN =   371645888.0000                  TOTAL IN =          48.5842

          OUT:                                     OUT:
          ----                                     ----
               AG WELLS  =           0.0000                 AG WELLS  =           0.0000
      DIVERSION SEGMENTS =           0.0000        DIVERSION SEGMENTS =           0.0000
           GW IRRIGATION =    44426692.0000             GW IRRIGATION =           7.9511
           SW IRRIGATION =   327225664.0000             SW IRRIGATION =          40.6339
        SYSTEM LOSSES GW =           0.0000          SYSTEM LOSSES GW =           0.0000
        SYSTEM LOSSES SW =           0.0000          SYSTEM LOSSES SW =           0.0000

               TOTAL OUT =   371652352.0000                 TOTAL OUT =          48.5850

                IN - OUT =       -6464.0000                  IN - OUT =      -8.0872E-04

     PERCENT DISCREPANCY =          -0.00         PERCENT DISCREPANCY =          -0.00



1
  VOLUMETRIC BUDGET FOR ENTIRE MODEL AT END OF TIME STEP   30, STRESS PERIOD   9
  ------------------------------------------------------------------------------

     CUMULATIVE VOLUMES      L**3       RATES FOR THIS TIME STEP      L**3/T
     ------------------                 ------------------------

           IN:                                      IN:
           ---                                      ---
             STORAGE     =    60833508.0000               STORAGE     =           8.1339
       CONSTANT HEAD     =           0.0000         CONSTANT HEAD     =           0.0000
     HEAD DEP BOUNDS     =     6036881.5000       HEAD DEP BOUNDS     =           0.2858
      STREAM LEAKAGE     =   257507136.0000        STREAM LEAKAGE     =          11.8963
        UZF RECHARGE     =       73223.9531          UZF RECHARGE     =           0.0000
               GW ET     =           0.0000                 GW ET     =           0.0000
     SURFACE LEAKAGE     =           0.0000       SURFACE LEAKAGE     =           0.0000
           AG WELLS      =           0.0000             AG WELLS      =           0.0000

                TOTAL IN =   324450752.0000                  TOTAL IN =          20.3160

          OUT:                                     OUT:
          ----                                     ----
             STORAGE     =    43407240.0000               STORAGE     =           0.7989
       CONSTANT HEAD     =           0.0000         CONSTANT HEAD     =           0.0000
     HEAD DEP BOUNDS     =     6154171.0000       HEAD DEP BOUNDS     =           0.2874
      STREAM LEAKAGE     =   228947168.0000        STREAM LEAKAGE     =          11.2799
        UZF RECHARGE     =           0.0000          UZF RECHARGE     =           0.0000
               GW ET     =     1517575.6250                 GW ET     =           0.0000
     SURFACE LEAKAGE     =           0.0000       SURFACE LEAKAGE     =           0.0000
           AG WELLS      =    44426692.0000             AG WELLS      =           7.9511

               TOTAL OUT =   324452832.0000                 TOTAL OUT =          20.3172

                IN - OUT =       -2080.0000                  IN - OUT =      -1.2703E-03

     PERCENT DISCREPANCY =          -0.00         PERCENT DISCREPANCY =          -0.01






         TIME SUMMARY AT END OF TIME STEP   30 IN STRESS PERIOD    9
                    SECONDS     MINUTES      HOURS       DAYS        YEARS
                    -----------------------------------------------------------
   TIME STEP LENGTH  87667.      1461.1      24.352      1.0147     2.77799E-03
 STRESS PERIOD TIME 2.63000E+06  43833.      730.56      30.440     8.33397E-02
         TOTAL TIME 2.11264E+07 3.52107E+05  5868.4      244.52     0.66945    
1
1
                            STRESS PERIOD NO.   10, LENGTH =   2630000.    
                            -----------------------------------------------

                              NUMBER OF TIME STEPS =    30

                               MULTIPLIER FOR DELT =     1.000

                            INITIAL TIME STEP SIZE =   87666.66    

 REUSING NON-PARAMETER GHB CELLS FROM LAST STRESS PERIOD

      2 GHB CELLS

 REUSING STREAM SEGMENT DATA FROM LAST STRESS PERIOD



            AREAL INFILTRATION RATE
 READING ON UNIT   19 WITH FORMAT: (10F4.0)            

            1           2           3           4           5           6           7           8           9          10
 ........................................................................................................................
   1   1.2000E-09   0.000       0.000       0.000       0.000       0.000       0.000       0.000       0.000       0.000    
   2   2.1000E-09  2.0000E-09  8.0000E-10  8.5000E-09   0.000       0.000       0.000       0.000       0.000       0.000    
   3   5.0000E-10  1.1000E-09  8.8000E-09  5.5000E-09   0.000       0.000       0.000       0.000       0.000       0.000    
   4   8.5000E-09  1.1000E-09  1.1000E-09  1.1000E-09  2.0000E-09   0.000       0.000       0.000       0.000       0.000    
   5   8.5000E-09  1.1000E-09  1.1000E-09  1.1000E-09  1.1000E-09   0.000       0.000       0.000       0.000       0.000    
   6   8.5000E-09  5.2000E-09  2.1000E-09  1.1000E-09  1.5000E-09   0.000       0.000       0.000       0.000       0.000    
   7   8.5000E-09  5.2000E-09  2.1000E-09  1.2000E-09  2.0000E-09   0.000       0.000       0.000       0.000       0.000    
   8   5.0000E-10  5.2000E-09  2.1000E-09  1.2000E-09  5.0000E-09   0.000       0.000       0.000       0.000       0.000    
   9   5.0000E-10  5.2000E-09  2.1000E-09  1.2000E-09  5.0000E-09   0.000       0.000       0.000       0.000       0.000    
  10   5.0000E-10  5.2000E-09  2.1000E-09  1.2000E-09  5.8000E-09   0.000       0.000       0.000       0.000       0.000    
  11   1.0000E-10  1.1000E-09  1.1000E-09  1.2000E-09  5.0000E-09   0.000       0.000       0.000       0.000       0.000    
  12   1.1000E-09  1.1000E-09  1.1000E-09  1.1000E-09  2.0000E-09   0.000       0.000       0.000       0.000       0.000    
  13   1.1000E-09  2.2000E-09  2.2000E-09  2.1000E-09  1.0000E-09   0.000       0.000       0.000       0.000       0.000    
  14   2.0000E-10  5.5000E-09  5.5000E-09  5.2000E-09  1.0000E-09   0.000       0.000       0.000       0.000       0.000    
  15    0.000      8.8000E-09  8.8000E-09   0.000       0.000       0.000       0.000       0.000       0.000       0.000    

                  ET RATE =  7.500000E-08

 USING ET EXTINCTION DEPTH FROM PREVIOUS STRESS PERIOD. CURRENT PERIOD IS:      10

 USING EXTINCTION WATER CONTENT FROM PREVIOUS STRESS PERIOD. CURRENT PERIOD IS:      10

 USING AIR ENTRY PRESSURE FROM PREVIOUS STRESS PERIOD. CURRENT PERIOD IS:      10

 USING ROOT PRESSURE HEAD FROM PREVIOUS STRESS PERIOD. CURRENT PERIOD IS:      10

 USING ROOT ACTIVITY FROM PREVIOUS STRESS PERIOD. CURRENT PERIOD IS:      10

 PROCESSING AG STRESS PERIOD DATA

 READING AG STRESS PERIOD DATA

 READING IRRIGATION SEGMENT

 READING IRRIGATION WELL

 READING SUPPLEMENTAL WELL

 END PROCESSING AG STRESS PERIOD DATA OPTIONS
 
 SOLVING FOR HEAD 
                                                   Max.-Head-Change                         Max.-Flux-Residual
  Residual-Control   Outer-Iter.   Inner-Iter.     Column Row Layer    Maximum-Head-Change  Column Row Layer    Maximum-Flux-Residual          L2-NORM 
          0                 1           2             5    6     1       0.1550748042E-01       4   13    1         0.8629955080E+00      0.2565631659E+01
          0                 2           2             4   13     1      -0.4278460950E-02       4   13    1        -0.2527263012E+00      0.5090479141E+00
          0                 3           2             2   13     1      -0.7845264802E-03       4   13    1        -0.4625695616E-01      0.8386898865E-01
          0                 4           2             4   13     1      -0.1944751286E-03       4   13    1        -0.1147673796E-01      0.2015458466E-01
          0                 5           1             4   13     1      -0.2884306036E-04       4   13    1        -0.1701929345E-02      0.3008354597E-02

    ------------------------------------------------
       NWT REQUIRED            5 OUTER ITERATIONS 
       AND A TOTAL OF          9 INNER ITERATIONS.
    ------------------------------------------------

 NO OUTPUT CONTROL FOR STRESS PERIOD   10   TIME STEP    1
 
 SOLVING FOR HEAD 
                                                   Max.-Head-Change                         Max.-Flux-Residual
  Residual-Control   Outer-Iter.   Inner-Iter.     Column Row Layer    Maximum-Head-Change  Column Row Layer    Maximum-Flux-Residual          L2-NORM 
          0                 1           2             5    6     1       0.1488910156E-01       5    6    1         0.8059748804E+00      0.2277493509E+01
          0                 2           2             4   13     1      -0.3864989314E-02       4   13    1        -0.2279973386E+00      0.4448822496E+00
          0                 3           2             4   13     1      -0.8218639191E-03       4   13    1        -0.4843924196E-01      0.8681887725E-01
          0                 4           2             4   13     1      -0.1872286140E-03       4   13    1        -0.1103577764E-01      0.1941241191E-01
          0                 5           1             4   13     1      -0.2912760165E-04       4   13    1        -0.1716661275E-02      0.3033700416E-02

    ------------------------------------------------
       NWT REQUIRED            5 OUTER ITERATIONS 
       AND A TOTAL OF          9 INNER ITERATIONS.
    ------------------------------------------------

 NO OUTPUT CONTROL FOR STRESS PERIOD   10   TIME STEP    2
 
 SOLVING FOR HEAD 
                                                   Max.-Head-Change                         Max.-Flux-Residual
  Residual-Control   Outer-Iter.   Inner-Iter.     Column Row Layer    Maximum-Head-Change  Column Row Layer    Maximum-Flux-Residual          L2-NORM 
          0                 1           2             5    6     1       0.1430627258E-01       5    6    1         0.7738295417E+00      0.2199408353E+01
          0                 2           2             4   13     1      -0.3802275726E-02       4   13    1        -0.2242790629E+00      0.4373549201E+00
          0                 3           2             4   13     1      -0.8384984846E-03       4   13    1        -0.4942098868E-01      0.8837368831E-01
          0                 4           2             4   13     1      -0.1877613169E-03       4   13    1        -0.1106695019E-01      0.1948943455E-01
          0                 5           1             4   13     1      -0.2953747623E-04       4   13    1        -0.1740826490E-02      0.3076345046E-02

    ------------------------------------------------
       NWT REQUIRED            5 OUTER ITERATIONS 
       AND A TOTAL OF          9 INNER ITERATIONS.
    ------------------------------------------------

 NO OUTPUT CONTROL FOR STRESS PERIOD   10   TIME STEP    3
 
 SOLVING FOR HEAD 
                                                   Max.-Head-Change                         Max.-Flux-Residual
  Residual-Control   Outer-Iter.   Inner-Iter.     Column Row Layer    Maximum-Head-Change  Column Row Layer    Maximum-Flux-Residual          L2-NORM 
          0                 1           2             5    6     1       0.1375649959E-01       5    6    1         0.7435274247E+00      0.2126445646E+01
          0                 2           2             4   13     1      -0.3745518954E-02       4   13    1        -0.2209151210E+00      0.4303757900E+00
          0                 3           2             4   13     1      -0.8484165515E-03       4   13    1        -0.5000675442E-01      0.8925999439E-01
          0                 4           2             4   13     1      -0.1896728703E-03       4   13    1        -0.1117944619E-01      0.1969731225E-01
          0                 5           1             4   13     1      -0.2960671372E-04       4   13    1        -0.1744903514E-02      0.3083668007E-02

    ------------------------------------------------
       NWT REQUIRED            5 OUTER ITERATIONS 
       AND A TOTAL OF          9 INNER ITERATIONS.
    ------------------------------------------------

 NO OUTPUT CONTROL FOR STRESS PERIOD   10   TIME STEP    4
 
 SOLVING FOR HEAD 
                                                   Max.-Head-Change                         Max.-Flux-Residual
  Residual-Control   Outer-Iter.   Inner-Iter.     Column Row Layer    Maximum-Head-Change  Column Row Layer    Maximum-Flux-Residual          L2-NORM 
          0                 1           2             5    6     1       0.1323779188E-01       5    6    1         0.7149558082E+00      0.2058171746E+01
          0                 2           2             4   13     1      -0.3693994253E-02       4   13    1        -0.2178623831E+00      0.4238882872E+00
          0                 3           2             4   13     1      -0.8531209327E-03       4   13    1        -0.5028509584E-01      0.8963110947E-01
          0                 4           2             4   13     1      -0.1926704111E-03       4   13    1        -0.1135600336E-01      0.2001238397E-01
          0                 5           1             4   13     1      -0.2942598603E-04       4   13    1        -0.1734264914E-02      0.3064637311E-02

    ------------------------------------------------
       NWT REQUIRED            5 OUTER ITERATIONS 
       AND A TOTAL OF          9 INNER ITERATIONS.
    ------------------------------------------------

 NO OUTPUT CONTROL FOR STRESS PERIOD   10   TIME STEP    5
 
 SOLVING FOR HEAD 
                                                   Max.-Head-Change                         Max.-Flux-Residual
  Residual-Control   Outer-Iter.   Inner-Iter.     Column Row Layer    Maximum-Head-Change  Column Row Layer    Maximum-Flux-Residual          L2-NORM 
          0                 1           2             5    6     1       0.1274831061E-01       5    6    1         0.6880114783E+00      0.1994152671E+01
          0                 2           2             4   13     1      -0.3647158682E-02       4   13    1        -0.2150884869E+00      0.4178496313E+00
          0                 3           2             4   13     1      -0.8543804731E-03       4   13    1        -0.5036029614E-01      0.8966269087E-01
          0                 4           2             4   13     1      -0.1963375957E-03       4   13    1        -0.1157205065E-01      0.2039553758E-01
          0                 5           1             4   13     1      -0.2897976085E-04       4   13    1        -0.1707947687E-02      0.3020759313E-02

    ------------------------------------------------
       NWT REQUIRED            5 OUTER ITERATIONS 
       AND A TOTAL OF          9 INNER ITERATIONS.
    ------------------------------------------------

 NO OUTPUT CONTROL FOR STRESS PERIOD   10   TIME STEP    6
 
 SOLVING FOR HEAD 
                                                   Max.-Head-Change                         Max.-Flux-Residual
  Residual-Control   Outer-Iter.   Inner-Iter.     Column Row Layer    Maximum-Head-Change  Column Row Layer    Maximum-Flux-Residual          L2-NORM 
          0                 1           2             5    7     1       0.1229425716E-01       5    6    1         0.6625659380E+00      0.1934039974E+01
          0                 2           2             4   13     1      -0.3608227340E-02       4   13    1        -0.2127824124E+00      0.4125705114E+00
          0                 3           2             4   13     1      -0.8471575941E-03       4   13    1        -0.4993545130E-01      0.8883818597E-01
          0                 4           2             4   13     1      -0.2024568315E-03       4   13    1        -0.1193263890E-01      0.2102954331E-01
          0                 5           1             4   13     1      -0.2842504909E-04       4   13    1        -0.1675254794E-02      0.2964795796E-02

    ------------------------------------------------
       NWT REQUIRED            5 OUTER ITERATIONS 
       AND A TOTAL OF          9 INNER ITERATIONS.
    ------------------------------------------------

 NO OUTPUT CONTROL FOR STRESS PERIOD   10   TIME STEP    7
 
 SOLVING FOR HEAD 
                                                   Max.-Head-Change                         Max.-Flux-Residual
  Residual-Control   Outer-Iter.   Inner-Iter.     Column Row Layer    Maximum-Head-Change  Column Row Layer    Maximum-Flux-Residual          L2-NORM 
          0                 1           2             5    7     1       0.1203910038E-01       5    7    1         0.6389540999E+00      0.1877487688E+01
          0                 2           2             4   13     1      -0.3567245125E-02       4   13    1        -0.2103575882E+00      0.4071264568E+00
          0                 3           2             4   13     1      -0.8493484190E-03       4   13    1        -0.5006527915E-01      0.8898682544E-01
          0                 4           2             4   13     1      -0.2051556084E-03       4   13    1        -0.1209168594E-01      0.2130855928E-01
          0                 5           1             4   13     1      -0.2784510600E-04       4   13    1        -0.1641082745E-02      0.2904511104E-02

    ------------------------------------------------
       NWT REQUIRED            5 OUTER ITERATIONS 
       AND A TOTAL OF          9 INNER ITERATIONS.
    ------------------------------------------------

 NO OUTPUT CONTROL FOR STRESS PERIOD   10   TIME STEP    8
 
 SOLVING FOR HEAD 
                                                   Max.-Head-Change                         Max.-Flux-Residual
  Residual-Control   Outer-Iter.   Inner-Iter.     Column Row Layer    Maximum-Head-Change  Column Row Layer    Maximum-Flux-Residual          L2-NORM 
          0                 1           2             5    7     1       0.1178941367E-01       5    7    1         0.6257078772E+00      0.1824233609E+01
          0                 2           2             4   13     1      -0.3528103913E-02       4   13    1        -0.2080429301E+00      0.4018852049E+00
          0                 3           2             4   13     1      -0.8541889109E-03       4   13    1        -0.5035123770E-01      0.8941031004E-01
          0                 4           2             4   13     1      -0.2069044447E-03       4   13    1        -0.1219469635E-01      0.2149414104E-01
          0                 5           1             4   13     1      -0.2723847862E-04       4   13    1        -0.1605333537E-02      0.2841768292E-02

    ------------------------------------------------
       NWT REQUIRED            5 OUTER ITERATIONS 
       AND A TOTAL OF          9 INNER ITERATIONS.
    ------------------------------------------------

 NO OUTPUT CONTROL FOR STRESS PERIOD   10   TIME STEP    9
 
 SOLVING FOR HEAD 
                                                   Max.-Head-Change                         Max.-Flux-Residual
  Residual-Control   Outer-Iter.   Inner-Iter.     Column Row Layer    Maximum-Head-Change  Column Row Layer    Maximum-Flux-Residual          L2-NORM 
          0                 1           2             4    7     1       0.1161617382E-01       5    7    1         0.6127287281E+00      0.1773997114E+01
          0                 2           2             4   13     1      -0.3492740826E-02       4   13    1        -0.2059523371E+00      0.3970297569E+00
          0                 3           2             4   13     1      -0.8580562131E-03       4   13    1        -0.5057896470E-01      0.8974284620E-01
          0                 4           2             4   13     1      -0.2090611516E-03       4   13    1        -0.1232161374E-01      0.2170805448E-01
          0                 5           1             2   13     1      -0.2663408252E-04       4   13    1        -0.1568458752E-02      0.2777383433E-02

    ------------------------------------------------
       NWT REQUIRED            5 OUTER ITERATIONS 
       AND A TOTAL OF          9 INNER ITERATIONS.
    ------------------------------------------------

 NO OUTPUT CONTROL FOR STRESS PERIOD   10   TIME STEP   10
 
 SOLVING FOR HEAD 
                                                   Max.-Head-Change                         Max.-Flux-Residual
  Residual-Control   Outer-Iter.   Inner-Iter.     Column Row Layer    Maximum-Head-Change  Column Row Layer    Maximum-Flux-Residual          L2-NORM 
          0                 1           2             4    7     1       0.1152482027E-01       4    7    1         0.6035626693E+00      0.1726555192E+01
          0                 2           2             4   13     1      -0.3471200148E-02       4   13    1        -0.2046771128E+00      0.3935186423E+00
          0                 3           2             4   13     1      -0.8443628222E-03       4   13    1        -0.4977222608E-01      0.8829001712E-01
          0                 4           2             4   13     1      -0.2180274415E-03       4   13    1        -0.1285018638E-01      0.2262392119E-01
          0                 5           1             2   13     1      -0.2583235153E-04       4   13    1        -0.1517050266E-02      0.2691913898E-02

    ------------------------------------------------
       NWT REQUIRED            5 OUTER ITERATIONS 
       AND A TOTAL OF          9 INNER ITERATIONS.
    ------------------------------------------------

 NO OUTPUT CONTROL FOR STRESS PERIOD   10   TIME STEP   11
 
 SOLVING FOR HEAD 
                                                   Max.-Head-Change                         Max.-Flux-Residual
  Residual-Control   Outer-Iter.   Inner-Iter.     Column Row Layer    Maximum-Head-Change  Column Row Layer    Maximum-Flux-Residual          L2-NORM 
          0                 1           2             4    7     1       0.1142813182E-01       4    7    1         0.5988260739E+00      0.1681703127E+01
          0                 2           2             4   13     1      -0.3445660773E-02       4   13    1        -0.2031675677E+00      0.3896686764E+00
          0                 3           2             4   13     1      -0.8411244471E-03       4   13    1        -0.4958177663E-01      0.8790586050E-01
          0                 4           2             4   13     1      -0.2230000643E-03       4   13    1        -0.1314317782E-01      0.2314177247E-01
          0                 5           1             2   13     1      -0.2510187107E-04       4   13    1        -0.1474149864E-02      0.2614622355E-02

    ------------------------------------------------
       NWT REQUIRED            5 OUTER ITERATIONS 
       AND A TOTAL OF          9 INNER ITERATIONS.
    ------------------------------------------------

 NO OUTPUT CONTROL FOR STRESS PERIOD   10   TIME STEP   12
 
 SOLVING FOR HEAD 
                                                   Max.-Head-Change                         Max.-Flux-Residual
  Residual-Control   Outer-Iter.   Inner-Iter.     Column Row Layer    Maximum-Head-Change  Column Row Layer    Maximum-Flux-Residual          L2-NORM 
          0                 1           2             4    7     1       0.1132640441E-01       4    7    1         0.5937980736E+00      0.1639224713E+01
          0                 2           2             4   13     1      -0.3422537442E-02       4   13    1        -0.2018013291E+00      0.3860887053E+00
          0                 3           2             4   13     1      -0.8377125577E-03       4   13    1        -0.4938098880E-01      0.8751139747E-01
          0                 4           2             4   13     1      -0.2321147460E-03       4   13    1        -0.1368286483E-01      0.2380252803E-01
          0                 5           1             2   13     1      -0.2439752784E-04       2   13    1        -0.1411568006E-02      0.2403742448E-02

    ------------------------------------------------
       NWT REQUIRED            5 OUTER ITERATIONS 
       AND A TOTAL OF          9 INNER ITERATIONS.
    ------------------------------------------------

 NO OUTPUT CONTROL FOR STRESS PERIOD   10   TIME STEP   13
 
 SOLVING FOR HEAD 
                                                   Max.-Head-Change                         Max.-Flux-Residual
  Residual-Control   Outer-Iter.   Inner-Iter.     Column Row Layer    Maximum-Head-Change  Column Row Layer    Maximum-Flux-Residual          L2-NORM 
          0                 1           2             4    7     1       0.1122045624E-01       4    7    1         0.5885236019E+00      0.1598981008E+01
          0                 2           2             4   13     1      -0.3401507158E-02       4   13    1        -0.2005592076E+00      0.3827514513E+00
          0                 3           2             4   13     1      -0.8341877969E-03       4   13    1        -0.4917350157E-01      0.8710974850E-01
          0                 4           2             4   13     1      -0.2334192669E-03       4   13    1        -0.1375728144E-01      0.2421447960E-01
          0                 5           1             2   13     1      -0.2344249490E-04       4   13    1        -0.1372758814E-02      0.2438542784E-02

    ------------------------------------------------
       NWT REQUIRED            5 OUTER ITERATIONS 
       AND A TOTAL OF          9 INNER ITERATIONS.
    ------------------------------------------------

 NO OUTPUT CONTROL FOR STRESS PERIOD   10   TIME STEP   14
 
 SOLVING FOR HEAD 
                                                   Max.-Head-Change                         Max.-Flux-Residual
  Residual-Control   Outer-Iter.   Inner-Iter.     Column Row Layer    Maximum-Head-Change  Column Row Layer    Maximum-Flux-Residual          L2-NORM 
          0                 1           2             4    7     1       0.1111023695E-01       4    7    1         0.5830006977E+00      0.1560772787E+01
          0                 2           2             4   13     1      -0.3382441673E-02       4   13    1        -0.1994344162E+00      0.3796442550E+00
          0                 3           2             4   13     1      -0.8303774448E-03       4   13    1        -0.4894824711E-01      0.8668717159E-01
          0                 4           2             4   13     1      -0.2388034054E-03       4   13    1        -0.1407470115E-01      0.2476710931E-01
          0                 5           1             2   13     1      -0.2251908992E-04       4   13    1        -0.1315950791E-02      0.2340563213E-02

    ------------------------------------------------
       NWT REQUIRED            5 OUTER ITERATIONS 
       AND A TOTAL OF          9 INNER ITERATIONS.
    ------------------------------------------------

 NO OUTPUT CONTROL FOR STRESS PERIOD   10   TIME STEP   15
 
 SOLVING FOR HEAD 
                                                   Max.-Head-Change                         Max.-Flux-Residual
  Residual-Control   Outer-Iter.   Inner-Iter.     Column Row Layer    Maximum-Head-Change  Column Row Layer    Maximum-Flux-Residual          L2-NORM 
          0                 1           2             4    7     1       0.1099677953E-01       4    7    1         0.5772859282E+00      0.1524488598E+01
          0                 2           2             4   13     1      -0.3365152799E-02       4   13    1        -0.1984125943E+00      0.3767560022E+00
          0                 3           2             4   13     1      -0.8264060455E-03       4   13    1        -0.4871556319E-01      0.8624093348E-01
          0                 4           2             4   13     1      -0.2441693232E-03       4   13    1        -0.1439089830E-01      0.2532714745E-01
          0                 5           1             2   13     1      -0.2151913590E-04       4   13    1        -0.1262175329E-02      0.2238713102E-02

    ------------------------------------------------
       NWT REQUIRED            5 OUTER ITERATIONS 
       AND A TOTAL OF          9 INNER ITERATIONS.
    ------------------------------------------------

 NO OUTPUT CONTROL FOR STRESS PERIOD   10   TIME STEP   16
 
 SOLVING FOR HEAD 
                                                   Max.-Head-Change                         Max.-Flux-Residual
  Residual-Control   Outer-Iter.   Inner-Iter.     Column Row Layer    Maximum-Head-Change  Column Row Layer    Maximum-Flux-Residual          L2-NORM 
          0                 1           2             4    7     1       0.1088023261E-01       4    7    1         0.5713884689E+00      0.1489963680E+01
          0                 2           2             4   13     1      -0.3349424051E-02       4   13    1        -0.1974862991E+00      0.3740419793E+00
          0                 3           2             4   13     1      -0.8223377593E-03       4   13    1        -0.4847579870E-01      0.8579590582E-01
          0                 4           2             4   13     1      -0.2498076020E-03       4   13    1        -0.1472330252E-01      0.2589907457E-01
          0                 5           1             2   13     1      -0.2049243190E-04       4   13    1        -0.1192852367E-02      0.2125798204E-02

    ------------------------------------------------
       NWT REQUIRED            5 OUTER ITERATIONS 
       AND A TOTAL OF          9 INNER ITERATIONS.
    ------------------------------------------------

 NO OUTPUT CONTROL FOR STRESS PERIOD   10   TIME STEP   17
 
 SOLVING FOR HEAD 
                                                   Max.-Head-Change                         Max.-Flux-Residual
  Residual-Control   Outer-Iter.   Inner-Iter.     Column Row Layer    Maximum-Head-Change  Column Row Layer    Maximum-Flux-Residual          L2-NORM 
          0                 1           2             4    7     1       0.1076101465E-01       4    7    1         0.5653308207E+00      0.1457101152E+01
          0                 2           2             4   13     1      -0.3335120942E-02       4   13    1        -0.1966429648E+00      0.3715159940E+00
          0                 3           2             4   13     1      -0.8182168747E-03       4   13    1        -0.4823303088E-01      0.8534680750E-01
          0                 4           2             4   13     1      -0.2553968745E-03       4   13    1        -0.1505274043E-01      0.2647403918E-01
          0                 5           1             2   13     1      -0.1940985725E-04       4   13    1        -0.1127829138E-02      0.2011705116E-02

    ------------------------------------------------
       NWT REQUIRED            5 OUTER ITERATIONS 
       AND A TOTAL OF          9 INNER ITERATIONS.
    ------------------------------------------------

 NO OUTPUT CONTROL FOR STRESS PERIOD   10   TIME STEP   18
 
 SOLVING FOR HEAD 
                                                   Max.-Head-Change                         Max.-Flux-Residual
  Residual-Control   Outer-Iter.   Inner-Iter.     Column Row Layer    Maximum-Head-Change  Column Row Layer    Maximum-Flux-Residual          L2-NORM 
          0                 1           2             4    7     1       0.1063949999E-01       4    7    1         0.5591346808E+00      0.1425773906E+01
          0                 2           2             4   13     1      -0.3322094202E-02       4   13    1        -0.1958752186E+00      0.3691558422E+00
          0                 3           2             4   13     1      -0.8140561838E-03       4   13    1        -0.4798789381E-01      0.8489396645E-01
          0                 4           2             4   13     1      -0.2610765222E-03       4   13    1        -0.1538752043E-01      0.2705704780E-01
          0                 5           1             2   13     1      -0.1825384241E-04       4   13    1        -0.1056972672E-02      0.1888955170E-02

    ------------------------------------------------
       NWT REQUIRED            5 OUTER ITERATIONS 
       AND A TOTAL OF          9 INNER ITERATIONS.
    ------------------------------------------------

 NO OUTPUT CONTROL FOR STRESS PERIOD   10   TIME STEP   19
 
 SOLVING FOR HEAD 
                                                   Max.-Head-Change                         Max.-Flux-Residual
  Residual-Control   Outer-Iter.   Inner-Iter.     Column Row Layer    Maximum-Head-Change  Column Row Layer    Maximum-Flux-Residual          L2-NORM 
          0                 1           2             4    7     1       0.1051604277E-01       4    7    1         0.5528194581E+00      0.1395893170E+01
          0                 2           2             4   13     1      -0.3303869102E-02       4   13    1        -0.1948016190E+00      0.3663327617E+00
          0                 3           2             4   13     1      -0.8198301296E-03       4   13    1        -0.4832830737E-01      0.8546342452E-01
          0                 4           2             4   13     1      -0.2628060731E-03       4   13    1        -0.1548947637E-01      0.2723361161E-01
          0                 5           1             2   13     1      -0.1744478844E-04       2   13    1        -0.1009343371E-02      0.1804722132E-02

    ------------------------------------------------
       NWT REQUIRED            5 OUTER ITERATIONS 
       AND A TOTAL OF          9 INNER ITERATIONS.
    ------------------------------------------------

 NO OUTPUT CONTROL FOR STRESS PERIOD   10   TIME STEP   20
 
 SOLVING FOR HEAD 
                                                   Max.-Head-Change                         Max.-Flux-Residual
  Residual-Control   Outer-Iter.   Inner-Iter.     Column Row Layer    Maximum-Head-Change  Column Row Layer    Maximum-Flux-Residual          L2-NORM 
          0                 1           2             4    7     1       0.1039124658E-01       4    7    1         0.5464183112E+00      0.1367364763E+01
          0                 2           2             4   13     1      -0.3294329952E-02       4   13    1        -0.1942399549E+00      0.3643865993E+00
          0                 3           2             4   13     1      -0.8136249152E-03       4   13    1        -0.4796261007E-01      0.8480669166E-01
          0                 4           2             4   13     1      -0.2693829472E-03       4   13    1        -0.1587714596E-01      0.2790897479E-01
          0                 5           1             2   13     1      -0.1613889678E-04       2   13    1        -0.9338006485E-03      0.1665848290E-02

    ------------------------------------------------
       NWT REQUIRED            5 OUTER ITERATIONS 
       AND A TOTAL OF          9 INNER ITERATIONS.
    ------------------------------------------------

 NO OUTPUT CONTROL FOR STRESS PERIOD   10   TIME STEP   21
 
 SOLVING FOR HEAD 
                                                   Max.-Head-Change                         Max.-Flux-Residual
  Residual-Control   Outer-Iter.   Inner-Iter.     Column Row Layer    Maximum-Head-Change  Column Row Layer    Maximum-Flux-Residual          L2-NORM 
          0                 1           2             4    7     1       0.1026485747E-01       4    7    1         0.5399181457E+00      0.1340094757E+01
          0                 2           2             4   13     1      -0.3285539706E-02       4   13    1        -0.1937225535E+00      0.3625822566E+00
          0                 3           2             4   13     1      -0.8076759620E-03       4   13    1        -0.4761201669E-01      0.8413482135E-01
          0                 4           2             4   13     1      -0.2759195903E-03       4   13    1        -0.1626243732E-01      0.2857816712E-01
          0                 5           1             2   13     1      -0.1477579561E-04       2   13    1        -0.8549411341E-03      0.1519775206E-02

    ------------------------------------------------
       NWT REQUIRED            5 OUTER ITERATIONS 
       AND A TOTAL OF          9 INNER ITERATIONS.
    ------------------------------------------------

 NO OUTPUT CONTROL FOR STRESS PERIOD   10   TIME STEP   22
 
 SOLVING FOR HEAD 
                                                   Max.-Head-Change                         Max.-Flux-Residual
  Residual-Control   Outer-Iter.   Inner-Iter.     Column Row Layer    Maximum-Head-Change  Column Row Layer    Maximum-Flux-Residual          L2-NORM 
          0                 1           2             4    7     1       0.1013743716E-01       4    7    1         0.5333501851E+00      0.1314009506E+01
          0                 2           2             4   13     1      -0.3277487882E-02       4   13    1        -0.1932488946E+00      0.3608352411E+00
          0                 3           2             4   13     1      -0.8019208171E-03       4   13    1        -0.4727281720E-01      0.8355644777E-01
          0                 4           2             4   13     1      -0.2824532513E-03       4   13    1        -0.1664756099E-01      0.2924652511E-01
          0                 5           1             2   13     1      -0.1333406278E-04       2   13    1        -0.7715475267E-03      0.1366522823E-02

    ------------------------------------------------
       NWT REQUIRED            5 OUTER ITERATIONS 
       AND A TOTAL OF          9 INNER ITERATIONS.
    ------------------------------------------------

 NO OUTPUT CONTROL FOR STRESS PERIOD   10   TIME STEP   23
 
 SOLVING FOR HEAD 
                                                   Max.-Head-Change                         Max.-Flux-Residual
  Residual-Control   Outer-Iter.   Inner-Iter.     Column Row Layer    Maximum-Head-Change  Column Row Layer    Maximum-Flux-Residual          L2-NORM 
          0                 1           2             4    7     1       0.1000951595E-01       4    7    1         0.5267435543E+00      0.1289048560E+01
          0                 2           2             4   13     1      -0.3270106955E-02       4   13    1        -0.1928149130E+00      0.3592165404E+00
          0                 3           2             4   13     1      -0.7962977345E-03       4   13    1        -0.4694139009E-01      0.8296506355E-01
          0                 4           2             4   13     1      -0.2889791010E-03       4   13    1        -0.1703221998E-01      0.2991568424E-01
          0                 5           1             2   13     1      -0.1182093795E-04       2   13    1        -0.6840020678E-03      0.1207027065E-02

    ------------------------------------------------
       NWT REQUIRED            5 OUTER ITERATIONS 
       AND A TOTAL OF          9 INNER ITERATIONS.
    ------------------------------------------------

 NO OUTPUT CONTROL FOR STRESS PERIOD   10   TIME STEP   24
 
 SOLVING FOR HEAD 
                                                   Max.-Head-Change                         Max.-Flux-Residual
  Residual-Control   Outer-Iter.   Inner-Iter.     Column Row Layer    Maximum-Head-Change  Column Row Layer    Maximum-Flux-Residual          L2-NORM 
          0                 1           2             4    7     1       0.9880773828E-02       4    7    1         0.5200813558E+00      0.1265115597E+01
          0                 2           2             4   13     1      -0.3263276140E-02       4   13    1        -0.1924134706E+00      0.3576870719E+00
          0                 3           2             4   13     1      -0.7909274859E-03       4   13    1        -0.4662486414E-01      0.8239961160E-01
          0                 4           2             4   13     1      -0.2954890120E-03       4   13    1        -0.1741595325E-01      0.3058271006E-01
          0                 5           1             2   13     1      -0.1025787491E-04       2   13    1        -0.5935793861E-03      0.1041043132E-02

    ------------------------------------------------
       NWT REQUIRED            5 OUTER ITERATIONS 
       AND A TOTAL OF          9 INNER ITERATIONS.
    ------------------------------------------------

 NO OUTPUT CONTROL FOR STRESS PERIOD   10   TIME STEP   25
 
 SOLVING FOR HEAD 
                                                   Max.-Head-Change                         Max.-Flux-Residual
  Residual-Control   Outer-Iter.   Inner-Iter.     Column Row Layer    Maximum-Head-Change  Column Row Layer    Maximum-Flux-Residual          L2-NORM 
          0                 1           2             4    7     1       0.9751990184E-02       4    7    1         0.5134061896E+00      0.1242189503E+01
          0                 2           2             4   13     1      -0.3256980740E-02       4   13    1        -0.1920436905E+00      0.3562438666E+00
          0                 3           2             4   13     1      -0.7857334489E-03       4   13    1        -0.4631871905E-01      0.8185288319E-01
          0                 4           2             4   13     1      -0.3019603096E-03       4   13    1        -0.1779738136E-01      0.3124787015E-01
          0                 5           1             2   13     1      -0.8645914340E-05       2   13    1        -0.5003511715E-03      0.8683815342E-03

    ------------------------------------------------
       NWT REQUIRED            5 OUTER ITERATIONS 
       AND A TOTAL OF          9 INNER ITERATIONS.
    ------------------------------------------------

 NO OUTPUT CONTROL FOR STRESS PERIOD   10   TIME STEP   26
 
 SOLVING FOR HEAD 
                                                   Max.-Head-Change                         Max.-Flux-Residual
  Residual-Control   Outer-Iter.   Inner-Iter.     Column Row Layer    Maximum-Head-Change  Column Row Layer    Maximum-Flux-Residual          L2-NORM 
          0                 1           2             4    7     1       0.9623079412E-02       4    7    1         0.5067140715E+00      0.1220182629E+01
          0                 2           2             4   13     1      -0.3251161435E-02       4   13    1        -0.1917020085E+00      0.3548846946E+00
          0                 3           2             4   13     1      -0.7806003758E-03       4   13    1        -0.4601614481E-01      0.8131407647E-01
          0                 4           2             4   13     1      -0.3084958056E-03       4   13    1        -0.1818260689E-01      0.3191942801E-01
          0                 5           1             2   13     1      -0.6890862736E-05       2   13    1        -0.3987893479E-03      0.6865029388E-03

    ------------------------------------------------
       NWT REQUIRED            5 OUTER ITERATIONS 
       AND A TOTAL OF          9 INNER ITERATIONS.
    ------------------------------------------------

 NO OUTPUT CONTROL FOR STRESS PERIOD   10   TIME STEP   27
 
 SOLVING FOR HEAD 
                                                   Max.-Head-Change                         Max.-Flux-Residual
  Residual-Control   Outer-Iter.   Inner-Iter.     Column Row Layer    Maximum-Head-Change  Column Row Layer    Maximum-Flux-Residual          L2-NORM 
          0                 1           2             4    7     1       0.9493957287E-02       4    7    1         0.5000005624E+00      0.1199049560E+01
          0                 2           2             4   13     1      -0.3239682568E-02       4   13    1        -0.1910270614E+00      0.3530017428E+00
          0                 3           2             4   13     1      -0.7831744376E-03       4   13    1        -0.4616790415E-01      0.8156444859E-01
          0                 4           2             4   13     1      -0.3118269325E-03       4   13    1        -0.1837896847E-01      0.3226007286E-01
          0                 5           1             2   13     1      -0.5877302472E-05       2   13    1        -0.3401790182E-03      0.5770325873E-03

    ------------------------------------------------
       NWT REQUIRED            5 OUTER ITERATIONS 
       AND A TOTAL OF          9 INNER ITERATIONS.
    ------------------------------------------------

 NO OUTPUT CONTROL FOR STRESS PERIOD   10   TIME STEP   28
 
 SOLVING FOR HEAD 
                                                   Max.-Head-Change                         Max.-Flux-Residual
  Residual-Control   Outer-Iter.   Inner-Iter.     Column Row Layer    Maximum-Head-Change  Column Row Layer    Maximum-Flux-Residual          L2-NORM 
          0                 1           2             4    7     1       0.9365346824E-02       4    7    1         0.4933056921E+00      0.1178750839E+01
          0                 2           2             4   13     1      -0.3239553030E-02       4   13    1        -0.1910206326E+00      0.3522620161E+00
          0                 3           2             4   13     1      -0.7737287384E-03       4   13    1        -0.4561108955E-01      0.8058578868E-01
          0                 4           2             4   13     1      -0.3205261926E-03       4   13    1        -0.1889171024E-01      0.3315341803E-01
          0                 5           1             2   13     1      -0.3672885463E-05       2   13    1        -0.2126415466E-03      0.3471468550E-03

    ------------------------------------------------
       NWT REQUIRED            5 OUTER ITERATIONS 
       AND A TOTAL OF          9 INNER ITERATIONS.
    ------------------------------------------------

 NO OUTPUT CONTROL FOR STRESS PERIOD   10   TIME STEP   29
 
 SOLVING FOR HEAD 
                                                   Max.-Head-Change                         Max.-Flux-Residual
  Residual-Control   Outer-Iter.   Inner-Iter.     Column Row Layer    Maximum-Head-Change  Column Row Layer    Maximum-Flux-Residual          L2-NORM 
          0                 1           2             4    7     1       0.9237111900E-02       4    7    1         0.4866225513E+00      0.1159234363E+01
          0                 2           2             4   13     1      -0.3235911171E-02       4   13    1        -0.1908073872E+00      0.3512086774E+00
          0                 3           2             4   13     1      -0.7618506925E-03       4   13    1        -0.4491099172E-01      0.7935637695E-01
          0                 4           2             4   13     1      -0.3302865904E-03       4   13    1        -0.1946704548E-01      0.3415596704E-01
          0                 5           1             2   13     1      -0.1450459026E-05       2   13    1        -0.8406526649E-04      0.1259679538E-03

    ------------------------------------------------
       NWT REQUIRED            5 OUTER ITERATIONS 
       AND A TOTAL OF          9 INNER ITERATIONS.
    ------------------------------------------------

 NO OUTPUT CONTROL FOR STRESS PERIOD   10   TIME STEP   30



 STREAM LISTING     PERIOD     10   STEP       30

 LAYER ROW COL. STREAM  RCH.  FLOW INTO     FLOW TO   FLOW OUT OF   OVRLND.     DIRECT     STREAM       STREAM     STREAM     STREAM   STREAMBED  STREAMBED
                SEG.NO.  NO.  STRM. RCH.    AQUIFER    STRM. RCH.    RUNOFF     PRECIP       ET          HEAD       DEPTH      WIDTH   CONDCTNC.   GRADIENT

   1    1    1     1     1    3.5250E+01  2.8720E-01   3.4963E+01  0.000E+00  0.000E+00  0.000E+00  1.09434E+03  1.294E+00  1.486E+01  6.688E-02  1.431E+00
   1    2    2     1     2    3.4963E+01  4.4467E-01   3.4518E+01  0.000E+00  0.000E+00  0.000E+00  1.08935E+03  1.291E+00  1.480E+01  1.036E-01  1.430E+00
   1    3    3     1     3    3.4518E+01  3.7912E-01   3.4139E+01  0.000E+00  0.000E+00  0.000E+00  1.08371E+03  1.288E+00  1.474E+01  8.841E-02  1.429E+00
   1    3    4     1     4    3.4139E+01  3.4902E-01   3.3790E+01  0.000E+00  0.000E+00  0.000E+00  1.07869E+03  1.285E+00  1.468E+01  8.145E-02  1.428E+00
   1    4    5     2     1    3.1790E+01  3.4244E-01   3.1447E+01  0.000E+00  0.000E+00  0.000E+00  1.07332E+03  1.390E+00  1.200E+01  7.800E-02  1.463E+00
   1    5    6     2     2    3.1447E+01  2.6294E-01   3.1184E+01  0.000E+00  0.000E+00  0.000E+00  1.06789E+03  1.382E+00  1.200E+01  6.000E-02  1.461E+00
   1    6    6     2     3    3.1184E+01  2.6252E-01   3.0922E+01  0.000E+00  0.000E+00  0.000E+00  1.06317E+03  1.375E+00  1.200E+01  6.000E-02  1.458E+00
   1    7    6     2     4    3.0922E+01  2.6210E-01   3.0660E+01  0.000E+00  0.000E+00  0.000E+00  1.05844E+03  1.368E+00  1.200E+01  6.000E-02  1.456E+00
   1    8    6     2     5    3.0660E+01  2.6168E-01   3.0398E+01  0.000E+00  0.000E+00  0.000E+00  1.05372E+03  1.361E+00  1.200E+01  6.000E-02  1.454E+00
   1    3    5     3     1    2.0000E+00  2.8252E-01   1.7175E+00  0.000E+00  0.000E+00  0.000E+00  1.07555E+03  1.909E+00  9.636E+00  7.227E-02  1.955E+00
   1    3    6     3     2    1.7175E+00  2.4905E-01   1.4684E+00  0.000E+00  0.000E+00  0.000E+00  1.07264E+03  1.727E+00  8.909E+00  6.682E-02  1.864E+00
   1    3    7     3     3    1.4684E+00  1.9718E-01   1.2712E+00  0.000E+00  0.000E+00  0.000E+00  1.06987E+03  1.555E+00  8.218E+00  5.547E-02  1.777E+00
   1    4    8     3     4    1.2712E+00  2.2567E-01   1.0456E+00  0.000E+00  0.000E+00  0.000E+00  1.06682E+03  1.364E+00  7.455E+00  6.709E-02  1.682E+00
   1    5    8     3     5    1.0456E+00  1.5790E-01   8.8768E-01  0.000E+00  0.000E+00  0.000E+00  1.06362E+03  1.164E+00  6.655E+00  4.991E-02  1.582E+00
   1    6    8     3     6    8.8768E-01  5.5980E-02   8.3170E-01  0.000E+00  0.000E+00  0.000E+00  1.06158E+03  1.036E+00  6.145E+00  1.844E-02  1.518E+00
   1    5   10     4     1    1.0000E+01  9.0919E-02   9.9091E+00  0.000E+00  0.000E+00  0.000E+00  1.07836E+03  6.368E-01  1.000E+01  2.500E-02  1.212E+00
   1    5    9     4     2    9.9091E+00  1.8158E-01   9.7275E+00  0.000E+00  0.000E+00  0.000E+00  1.07154E+03  6.315E-01  1.000E+01  5.000E-02  1.211E+00
   1    6    8     4     3    9.7275E+00  1.2689E-01   9.6006E+00  0.000E+00  0.000E+00  0.000E+00  1.06381E+03  6.256E-01  1.000E+01  3.500E-02  1.209E+00
   1    6    8     5     1    1.0432E+01  2.2686E-01   1.0205E+01  0.000E+00  0.000E+00  0.000E+00  1.05868E+03  6.790E-01  1.542E+01  6.166E-02  1.226E+00
   1    7    7     5     2    1.0205E+01  2.7894E-01   9.9265E+00  0.000E+00  0.000E+00  0.000E+00  1.05417E+03  6.732E-01  1.519E+01  7.594E-02  1.224E+00
   1    8    7     5     3    9.9265E+00  1.9221E-01   9.7343E+00  0.000E+00  0.000E+00  0.000E+00  1.04992E+03  6.676E-01  1.497E+01  5.241E-02  1.223E+00
   1    8    6     5     4    9.7343E+00  1.3577E-01   9.5985E+00  0.000E+00  0.000E+00  0.000E+00  1.04691E+03  6.637E-01  1.482E+01  3.706E-02  1.221E+00
   1    9    6     6     1    2.8941E+01  2.5977E-01   2.8681E+01  0.000E+00  0.000E+00  0.000E+00  1.04406E+03  1.330E+00  1.200E+01  6.000E-02  1.443E+00
   1   10    7     6     2    2.8681E+01  2.5934E-01   2.8421E+01  0.000E+00  0.000E+00  0.000E+00  1.03950E+03  1.322E+00  1.200E+01  6.000E-02  1.441E+00
   1   11    7     6     3    2.8421E+01  2.5891E-01   2.8163E+01  0.000E+00  0.000E+00  0.000E+00  1.03495E+03  1.315E+00  1.200E+01  6.000E-02  1.438E+00
   1   12    7     6     4    2.8163E+01  2.5848E-01   2.7904E+01  0.000E+00  0.000E+00  0.000E+00  1.03040E+03  1.308E+00  1.200E+01  6.000E-02  1.436E+00
   1   13    7     6     5    2.7904E+01  2.2362E-03   2.7902E+01  0.000E+00  0.000E+00  0.000E+00  1.02721E+03  1.304E+00  1.200E+01  2.400E-02  3.106E-02
   1   14    9     7     1    1.5000E+02  1.3360E+00   1.4866E+02  0.000E+00  0.000E+00  0.000E+00  1.03987E+03  2.288E+00  5.529E+01  5.593E-01  7.962E-01
   1   13    8     7     2    1.4866E+02  1.8243E+00   1.4684E+02  0.000E+00  0.000E+00  0.000E+00  1.03478E+03  2.279E+00  5.526E+01  6.148E-01  9.892E-01
   1   13    7     7     3    1.4684E+02  1.4351E+00   1.4540E+02  0.000E+00  0.000E+00  0.000E+00  1.02969E+03  2.271E+00  5.522E+01  5.585E-01  8.566E-01
   1   13    6     8     1    1.7331E+02  8.8901E-01   1.7242E+02  0.000E+00  0.000E+00  0.000E+00  1.02485E+03  2.971E+00  4.308E+01  4.390E-01  6.751E-01
   1   13    5     8     2    1.7242E+02  1.3310E-01   1.7228E+02  0.000E+00  0.000E+00  0.000E+00  1.01859E+03  2.967E+00  4.303E+01  4.385E-01  1.012E-01
   1   13    4     8     3    1.7228E+02 -2.5967E+00   1.7488E+02  0.000E+00  0.000E+00  0.000E+00  1.01235E+03  2.975E+00  4.314E+01  4.396E+00 -1.969E-01
   1   13    3     8     4    1.7488E+02 -3.7019E+00   1.7858E+02  0.000E+00  0.000E+00  0.000E+00  1.00612E+03  2.996E+00  4.343E+01  4.426E+00 -2.788E-01
   1   13    2     8     5    1.7858E+02 -2.5459E+00   1.8113E+02  0.000E+00  0.000E+00  0.000E+00  9.99890E+02  3.015E+00  4.372E+01  4.455E+00 -1.905E-01
   1   13    1     8     6    1.8113E+02 -1.9302E+00   1.8306E+02  0.000E+00  0.000E+00  0.000E+00  9.94904E+02  3.029E+00  4.392E+01  2.686E+00 -2.396E-01
   1    8    6     9     1    1.1056E+01  0.0000E+00   1.1056E+01  0.000E+00  0.000E+00  0.000E+00  1.08116E+03  2.407E+00  4.000E+00  0.000E+00  1.802E+00
   1    8    5     9     2    1.1056E+01  0.0000E+00   1.1056E+01  0.000E+00  0.000E+00  0.000E+00  1.08066E+03  2.407E+00  4.000E+00  0.000E+00  1.802E+00





UNSATURATED ZONE PACKAGE VOLUMETRIC BUDGET FOR  TIME STEP    30 STRESS PERIOD   10
  ------------------------------------------------------------------------------



     CUMULATIVE VOLUMES      L**3       RATES FOR THIS TIME STEP      L**3/T
     ------------------                 ------------------------

           IN:                                      IN:
           ---                                      ---
        INFILTRATION =   505143716.4900          INFILTRATION =          15.4637

          OUT:                                     OUT:
          ----                                     ----
              UZF ET =   484316348.7915                UZF ET =          15.3572
        UZF RECHARGE =       73224.0000          UZF RECHARGE =       0.0000E+00

            IN - OUT =    20754143.6985              IN - OUT =           0.1065

          STORAGE:                                 STORAGE:
          --------                                 --------
      STORAGE CHANGE =    20754136.5111        STORAGE CHANGE =           0.1065

 PERCENT DISCREPANCY IS DIFFERENCE BETWEEN IN-OUT MINUS CHANGE IN STORAGE
 DIVIDED BY THE AVERAGE OF IN AND OUT TIMES 100

 PERCENT DISCREPANCY =           0.00     PERCENT DISCREPANCY =           0.00






1
  VOLUMETRIC BUDGET FOR ENTIRE MODEL AT END OF TIME STEP   30, STRESS PERIOD  10
  ------------------------------------------------------------------------------

     CUMULATIVE VOLUMES      L**3       RATES FOR THIS TIME STEP      L**3/T
     ------------------                 ------------------------

           IN:                                      IN:
           ---                                      ---
               AG WELLS  =    44426692.0000                 AG WELLS  =           0.0000
      DIVERSION SEGMENTS =   356311200.0000        DIVERSION SEGMENTS =          11.0560
           GW IRRIGATION =           0.0000             GW IRRIGATION =           0.0000
           SW IRRIGATION =           0.0000             SW IRRIGATION =           0.0000
        SYSTEM LOSSES GW =           0.0000          SYSTEM LOSSES GW =           0.0000
        SYSTEM LOSSES SW =           0.0000          SYSTEM LOSSES SW =           0.0000

                TOTAL IN =   400737888.0000                  TOTAL IN =          11.0560

          OUT:                                     OUT:
          ----                                     ----
               AG WELLS  =           0.0000                 AG WELLS  =           0.0000
      DIVERSION SEGMENTS =           0.0000        DIVERSION SEGMENTS =           0.0000
           GW IRRIGATION =    44426692.0000             GW IRRIGATION =           0.0000
           SW IRRIGATION =   356318336.0000             SW IRRIGATION =          11.0562
        SYSTEM LOSSES GW =           0.0000          SYSTEM LOSSES GW =           0.0000
        SYSTEM LOSSES SW =           0.0000          SYSTEM LOSSES SW =           0.0000

               TOTAL OUT =   400745024.0000                 TOTAL OUT =          11.0562

                IN - OUT =       -7136.0000                  IN - OUT =      -2.2030E-04

     PERCENT DISCREPANCY =          -0.00         PERCENT DISCREPANCY =          -0.00



1
  VOLUMETRIC BUDGET FOR ENTIRE MODEL AT END OF TIME STEP   30, STRESS PERIOD  10
  ------------------------------------------------------------------------------

     CUMULATIVE VOLUMES      L**3       RATES FOR THIS TIME STEP      L**3/T
     ------------------                 ------------------------

           IN:                                      IN:
           ---                                      ---
             STORAGE     =    68598272.0000               STORAGE     =           1.9864
       CONSTANT HEAD     =           0.0000         CONSTANT HEAD     =           0.0000
     HEAD DEP BOUNDS     =     6788456.5000       HEAD DEP BOUNDS     =           0.2858
      STREAM LEAKAGE     =   288895648.0000        STREAM LEAKAGE     =          11.9095
        UZF RECHARGE     =       73223.9531          UZF RECHARGE     =           0.0000
               GW ET     =           0.0000                 GW ET     =           0.0000
     SURFACE LEAKAGE     =           0.0000       SURFACE LEAKAGE     =           0.0000
           AG WELLS      =           0.0000             AG WELLS      =           0.0000

                TOTAL IN =   364355584.0000                  TOTAL IN =          14.1817

          OUT:                                     OUT:
          ----                                     ----
             STORAGE     =    55088300.0000               STORAGE     =           3.1174
       CONSTANT HEAD     =           0.0000         CONSTANT HEAD     =           0.0000
     HEAD DEP BOUNDS     =     6913840.5000       HEAD DEP BOUNDS     =           0.2897
      STREAM LEAKAGE     =   256410384.0000        STREAM LEAKAGE     =          10.7746
        UZF RECHARGE     =           0.0000          UZF RECHARGE     =           0.0000
               GW ET     =     1517575.6250                 GW ET     =           0.0000
     SURFACE LEAKAGE     =           0.0000       SURFACE LEAKAGE     =           0.0000
           AG WELLS      =    44426692.0000             AG WELLS      =           0.0000

               TOTAL OUT =   364356768.0000                 TOTAL OUT =          14.1817

                IN - OUT =       -1184.0000                  IN - OUT =       1.7166E-05

     PERCENT DISCREPANCY =          -0.00         PERCENT DISCREPANCY =           0.00






         TIME SUMMARY AT END OF TIME STEP   30 IN STRESS PERIOD   10
                    SECONDS     MINUTES      HOURS       DAYS        YEARS
                    -----------------------------------------------------------
   TIME STEP LENGTH  87667.      1461.1      24.352      1.0147     2.77799E-03
 STRESS PERIOD TIME 2.63000E+06  43833.      730.56      30.440     8.33397E-02
         TOTAL TIME 2.37564E+07 3.95940E+05  6599.0      274.96     0.75279    
1
1
                            STRESS PERIOD NO.   11, LENGTH =   2630000.    
                            -----------------------------------------------

                              NUMBER OF TIME STEPS =    30

                               MULTIPLIER FOR DELT =     1.000

                            INITIAL TIME STEP SIZE =   87666.66    

 REUSING NON-PARAMETER GHB CELLS FROM LAST STRESS PERIOD

      2 GHB CELLS

 REUSING STREAM SEGMENT DATA FROM LAST STRESS PERIOD



            AREAL INFILTRATION RATE
 READING ON UNIT   19 WITH FORMAT: (10F4.0)            

            1           2           3           4           5           6           7           8           9          10
 ........................................................................................................................
   1   1.2000E-09   0.000       0.000       0.000       0.000       0.000       0.000       0.000       0.000       0.000    
   2   2.1000E-09  2.0000E-09  8.0000E-10  8.5000E-09   0.000       0.000       0.000       0.000       0.000       0.000    
   3   5.0000E-10  1.1000E-09  8.8000E-09  5.5000E-09   0.000       0.000       0.000       0.000       0.000       0.000    
   4   8.5000E-09  1.1000E-09  1.1000E-09  1.1000E-09  2.0000E-09   0.000       0.000       0.000       0.000       0.000    
   5   8.5000E-09  1.1000E-09  1.1000E-09  1.1000E-09  1.1000E-09   0.000       0.000       0.000       0.000       0.000    
   6   8.5000E-09  5.2000E-09  2.1000E-09  1.1000E-09  1.5000E-09   0.000       0.000       0.000       0.000       0.000    
   7   8.5000E-09  5.2000E-09  2.1000E-09  1.2000E-09  2.0000E-09   0.000       0.000       0.000       0.000       0.000    
   8   5.0000E-10  5.2000E-09  2.1000E-09  1.2000E-09  5.0000E-09   0.000       0.000       0.000       0.000       0.000    
   9   5.0000E-10  5.2000E-09  2.1000E-09  1.2000E-09  5.0000E-09   0.000       0.000       0.000       0.000       0.000    
  10   5.0000E-10  5.2000E-09  2.1000E-09  1.2000E-09  5.8000E-09   0.000       0.000       0.000       0.000       0.000    
  11   1.0000E-10  1.1000E-09  1.1000E-09  1.2000E-09  5.0000E-09   0.000       0.000       0.000       0.000       0.000    
  12   1.1000E-09  1.1000E-09  1.1000E-09  1.1000E-09  2.0000E-09   0.000       0.000       0.000       0.000       0.000    
  13   1.1000E-09  2.2000E-09  2.2000E-09  2.1000E-09  1.0000E-09   0.000       0.000       0.000       0.000       0.000    
  14   2.0000E-10  5.5000E-09  5.5000E-09  5.2000E-09  1.0000E-09   0.000       0.000       0.000       0.000       0.000    
  15    0.000      8.8000E-09  8.8000E-09   0.000       0.000       0.000       0.000       0.000       0.000       0.000    

                  ET RATE =  5.000000E-09

 USING ET EXTINCTION DEPTH FROM PREVIOUS STRESS PERIOD. CURRENT PERIOD IS:      11

 USING EXTINCTION WATER CONTENT FROM PREVIOUS STRESS PERIOD. CURRENT PERIOD IS:      11

 USING AIR ENTRY PRESSURE FROM PREVIOUS STRESS PERIOD. CURRENT PERIOD IS:      11

 USING ROOT PRESSURE HEAD FROM PREVIOUS STRESS PERIOD. CURRENT PERIOD IS:      11

 USING ROOT ACTIVITY FROM PREVIOUS STRESS PERIOD. CURRENT PERIOD IS:      11

 PROCESSING AG STRESS PERIOD DATA

 READING AG STRESS PERIOD DATA

 READING IRRIGATION SEGMENT

 READING IRRIGATION WELL

 READING SUPPLEMENTAL WELL

 END PROCESSING AG STRESS PERIOD DATA OPTIONS
 
 SOLVING FOR HEAD 
                                                   Max.-Head-Change                         Max.-Flux-Residual
  Residual-Control   Outer-Iter.   Inner-Iter.     Column Row Layer    Maximum-Head-Change  Column Row Layer    Maximum-Flux-Residual          L2-NORM 
          0                 1           2             4    7     1       0.9109374855E-02       4    7    1         0.4799588813E+00      0.1074333717E+01
          0                 2           2             4    7     1      -0.8860950768E-03       4    7    1        -0.4799597618E-01      0.1071483042E+00
          0                 3           1             4    7     1       0.6033977631E-04       4    7    1         0.3359718954E-02      0.7474136857E-02

    ------------------------------------------------
       NWT REQUIRED            3 OUTER ITERATIONS 
       AND A TOTAL OF          5 INNER ITERATIONS.
    ------------------------------------------------

 NO OUTPUT CONTROL FOR STRESS PERIOD   11   TIME STEP    1
 
 SOLVING FOR HEAD 
                                                   Max.-Head-Change                         Max.-Flux-Residual
  Residual-Control   Outer-Iter.   Inner-Iter.     Column Row Layer    Maximum-Head-Change  Column Row Layer    Maximum-Flux-Residual          L2-NORM 
          0                 1           2             4    7     1       0.8981912387E-02       4    7    1         0.4733040408E+00      0.1014237114E+01
          0                 2           2             4    7     1      -0.8736964456E-03       4    7    1        -0.4733049161E-01      0.1013717441E+00
          0                 3           1             4    7     1       0.5949547566E-04       4    7    1         0.3313135010E-02      0.7091318943E-02

    ------------------------------------------------
       NWT REQUIRED            3 OUTER ITERATIONS 
       AND A TOTAL OF          5 INNER ITERATIONS.
    ------------------------------------------------

 NO OUTPUT CONTROL FOR STRESS PERIOD   11   TIME STEP    2
 
 SOLVING FOR HEAD 
                                                   Max.-Head-Change                         Max.-Flux-Residual
  Residual-Control   Outer-Iter.   Inner-Iter.     Column Row Layer    Maximum-Head-Change  Column Row Layer    Maximum-Flux-Residual          L2-NORM 
          0                 1           2             4    7     1       0.8855439829E-02       4    7    1         0.4666952340E+00      0.9953208550E+00
          0                 2           2             4    7     1      -0.8613941041E-03       4    7    1        -0.4666961026E-01      0.9948650312E-01
          0                 3           1             4    7     1       0.5865773251E-04       4    7    1         0.3266873317E-02      0.6959950135E-02

    ------------------------------------------------
       NWT REQUIRED            3 OUTER ITERATIONS 
       AND A TOTAL OF          5 INNER ITERATIONS.
    ------------------------------------------------

 NO OUTPUT CONTROL FOR STRESS PERIOD   11   TIME STEP    3
 
 SOLVING FOR HEAD 
                                                   Max.-Head-Change                         Max.-Flux-Residual
  Residual-Control   Outer-Iter.   Inner-Iter.     Column Row Layer    Maximum-Head-Change  Column Row Layer    Maximum-Flux-Residual          L2-NORM 
          0                 1           2             4    7     1       0.8729782529E-02       4    7    1         0.4601229540E+00      0.9770992925E+00
          0                 2           2             4    7     1      -0.8491710622E-03       4    7    1        -0.4601238144E-01      0.9766973498E-01
          0                 3           1             4    7     1       0.5782538835E-04       4    7    1         0.3220867276E-02      0.6833236203E-02

    ------------------------------------------------
       NWT REQUIRED            3 OUTER ITERATIONS 
       AND A TOTAL OF          5 INNER ITERATIONS.
    ------------------------------------------------

 NO OUTPUT CONTROL FOR STRESS PERIOD   11   TIME STEP    4
 
 SOLVING FOR HEAD 
                                                   Max.-Head-Change                         Max.-Flux-Residual
  Residual-Control   Outer-Iter.   Inner-Iter.     Column Row Layer    Maximum-Head-Change  Column Row Layer    Maximum-Flux-Residual          L2-NORM 
          0                 1           2             4    7     1       0.8605046700E-02       4    7    1         0.4535929455E+00      0.9595275252E+00
          0                 2           2             4    7     1      -0.8370376527E-03       4    7    1        -0.4535937963E-01      0.9591722307E-01
          0                 3           1             4    7     1       0.5699914823E-04       4    7    1         0.3175157130E-02      0.6710834931E-02

    ------------------------------------------------
       NWT REQUIRED            3 OUTER ITERATIONS 
       AND A TOTAL OF          5 INNER ITERATIONS.
    ------------------------------------------------

 NO OUTPUT CONTROL FOR STRESS PERIOD   11   TIME STEP    5
 
 SOLVING FOR HEAD 
                                                   Max.-Head-Change                         Max.-Flux-Residual
  Residual-Control   Outer-Iter.   Inner-Iter.     Column Row Layer    Maximum-Head-Change  Column Row Layer    Maximum-Flux-Residual          L2-NORM 
          0                 1           2             4    7     1       0.8481312396E-02       4    7    1         0.4471107155E+00      0.9425552549E+00
          0                 2           2             4    7     1      -0.8250016633E-03       4    7    1        -0.4471115558E-01      0.9422411022E-01
          0                 3           1             4    7     1       0.5617954277E-04       4    7    1         0.3129781456E-02      0.6592705165E-02

    ------------------------------------------------
       NWT REQUIRED            3 OUTER ITERATIONS 
       AND A TOTAL OF          5 INNER ITERATIONS.
    ------------------------------------------------

 NO OUTPUT CONTROL FOR STRESS PERIOD   11   TIME STEP    6
 
 SOLVING FOR HEAD 
                                                   Max.-Head-Change                         Max.-Flux-Residual
  Residual-Control   Outer-Iter.   Inner-Iter.     Column Row Layer    Maximum-Head-Change  Column Row Layer    Maximum-Flux-Residual          L2-NORM 
          0                 1           2             4    7     1       0.8358942948E-02       4    7    1         0.4406952158E+00      0.9261729100E+00
          0                 2           2             4    7     1      -0.8130984352E-03       4    7    1        -0.4406960445E-01      0.9258962399E-01
          0                 3           1             4    7     1       0.5536897681E-04       4    7    1         0.3084872857E-02      0.6478757579E-02

    ------------------------------------------------
       NWT REQUIRED            3 OUTER ITERATIONS 
       AND A TOTAL OF          5 INNER ITERATIONS.
    ------------------------------------------------

 NO OUTPUT CONTROL FOR STRESS PERIOD   11   TIME STEP    7
 
 SOLVING FOR HEAD 
                                                   Max.-Head-Change                         Max.-Flux-Residual
  Residual-Control   Outer-Iter.   Inner-Iter.     Column Row Layer    Maximum-Head-Change  Column Row Layer    Maximum-Flux-Residual          L2-NORM 
          0                 1           2             4    7     1       0.8237444348E-02       4    7    1         0.4343208805E+00      0.9103065294E+00
          0                 2           2             4    7     1      -0.8012799167E-03       4    7    1        -0.4343216970E-01      0.9100623892E-01
          0                 3           1             4    7     1       0.5456418024E-04       4    7    1         0.3040252441E-02      0.6368246978E-02

    ------------------------------------------------
       NWT REQUIRED            3 OUTER ITERATIONS 
       AND A TOTAL OF          5 INNER ITERATIONS.
    ------------------------------------------------

 NO OUTPUT CONTROL FOR STRESS PERIOD   11   TIME STEP    8
 
 SOLVING FOR HEAD 
                                                   Max.-Head-Change                         Max.-Flux-Residual
  Residual-Control   Outer-Iter.   Inner-Iter.     Column Row Layer    Maximum-Head-Change  Column Row Layer    Maximum-Flux-Residual          L2-NORM 
          0                 1           2             4    7     1       0.8117171004E-02       4    7    1         0.4280064998E+00      0.8949657717E+00
          0                 2           2             4    7     1      -0.7895805798E-03       4    7    1        -0.4280073033E-01      0.8947496916E-01
          0                 3           1             4    7     1       0.5376749825E-04       4    7    1         0.2996051644E-02      0.6261150593E-02

    ------------------------------------------------
       NWT REQUIRED            3 OUTER ITERATIONS 
       AND A TOTAL OF          5 INNER ITERATIONS.
    ------------------------------------------------

 NO OUTPUT CONTROL FOR STRESS PERIOD   11   TIME STEP    9
 
 SOLVING FOR HEAD 
                                                   Max.-Head-Change                         Max.-Flux-Residual
  Residual-Control   Outer-Iter.   Inner-Iter.     Column Row Layer    Maximum-Head-Change  Column Row Layer    Maximum-Flux-Residual          L2-NORM 
          0                 1           2             4    7     1       0.7998448689E-02       4    7    1         0.4217704505E+00      0.8801050193E+00
          0                 2           2             4    7     1      -0.7780321157E-03       4    7    1        -0.4217712405E-01      0.8799132419E-01
          0                 3           1             4    7     1       0.5298109095E-04       4    7    1         0.2952399205E-02      0.6157599026E-02

    ------------------------------------------------
       NWT REQUIRED            3 OUTER ITERATIONS 
       AND A TOTAL OF          5 INNER ITERATIONS.
    ------------------------------------------------

 NO OUTPUT CONTROL FOR STRESS PERIOD   11   TIME STEP   10
 
 SOLVING FOR HEAD 
                                                   Max.-Head-Change                         Max.-Flux-Residual
  Residual-Control   Outer-Iter.   Inner-Iter.     Column Row Layer    Maximum-Head-Change  Column Row Layer    Maximum-Flux-Residual          L2-NORM 
          0                 1           2             4    7     1       0.7880766975E-02       4    7    1         0.4155852163E+00      0.8656870499E+00
          0                 2           2             4    7     1      -0.7665848733E-03       4    7    1        -0.4155859924E-01      0.8655178720E-01
          0                 3           1             4    7     1       0.5220157676E-04       4    7    1         0.2909102466E-02      0.6056984056E-02

    ------------------------------------------------
       NWT REQUIRED            3 OUTER ITERATIONS 
       AND A TOTAL OF          5 INNER ITERATIONS.
    ------------------------------------------------

 NO OUTPUT CONTROL FOR STRESS PERIOD   11   TIME STEP   11
 
 SOLVING FOR HEAD 
                                                   Max.-Head-Change                         Max.-Flux-Residual
  Residual-Control   Outer-Iter.   Inner-Iter.     Column Row Layer    Maximum-Head-Change  Column Row Layer    Maximum-Flux-Residual          L2-NORM 
          0                 1           2             4    7     1       0.7764727317E-02       4    7    1         0.4094835418E+00      0.8517196012E+00
          0                 2           2             4    7     1      -0.7552973575E-03       4    7    1        -0.4094843036E-01      0.8515704685E-01
          0                 3           1             4    7     1       0.5143293913E-04       4    7    1         0.2866390647E-02      0.5959520810E-02

    ------------------------------------------------
       NWT REQUIRED            3 OUTER ITERATIONS 
       AND A TOTAL OF          5 INNER ITERATIONS.
    ------------------------------------------------

 NO OUTPUT CONTROL FOR STRESS PERIOD   11   TIME STEP   12
 
 SOLVING FOR HEAD 
                                                   Max.-Head-Change                         Max.-Flux-Residual
  Residual-Control   Outer-Iter.   Inner-Iter.     Column Row Layer    Maximum-Head-Change  Column Row Layer    Maximum-Flux-Residual          L2-NORM 
          0                 1           2             4    7     1       0.7650078624E-02       4    7    1         0.4034522040E+00      0.8381606173E+00
          0                 2           2             4    7     1      -0.7441451437E-03       4    7    1        -0.4034529509E-01      0.8380242114E-01
          0                 3           1             4    7     1       0.5067351472E-04       4    7    1         0.2824171169E-02      0.5864550676E-02

    ------------------------------------------------
       NWT REQUIRED            3 OUTER ITERATIONS 
       AND A TOTAL OF          5 INNER ITERATIONS.
    ------------------------------------------------

 NO OUTPUT CONTROL FOR STRESS PERIOD   11   TIME STEP   13
 
 SOLVING FOR HEAD 
                                                   Max.-Head-Change                         Max.-Flux-Residual
  Residual-Control   Outer-Iter.   Inner-Iter.     Column Row Layer    Maximum-Head-Change  Column Row Layer    Maximum-Flux-Residual          L2-NORM 
          0                 1           2             4    7     1       0.7536856768E-02       4    7    1         0.3974929866E+00      0.8249874812E+00
          0                 2           2             4    7     1      -0.7331317226E-03       4    7    1        -0.3974937188E-01      0.8248698140E-01
          0                 3           1             4    7     1       0.4992354185E-04       4    7    1         0.2782456538E-02      0.5772981884E-02

    ------------------------------------------------
       NWT REQUIRED            3 OUTER ITERATIONS 
       AND A TOTAL OF          5 INNER ITERATIONS.
    ------------------------------------------------

 NO OUTPUT CONTROL FOR STRESS PERIOD   11   TIME STEP   14
 
 SOLVING FOR HEAD 
                                                   Max.-Head-Change                         Max.-Flux-Residual
  Residual-Control   Outer-Iter.   Inner-Iter.     Column Row Layer    Maximum-Head-Change  Column Row Layer    Maximum-Flux-Residual          L2-NORM 
          0                 1           2             4    7     1       0.7425091287E-02       4    7    1         0.3916077495E+00      0.8122092550E+00
          0                 2           2             4    7     1      -0.7222599667E-03       4    7    1        -0.3916084666E-01      0.8121040734E-01
          0                 3           1             4    7     1       0.4918321579E-04       4    7    1         0.2741259788E-02      0.5683778354E-02

    ------------------------------------------------
       NWT REQUIRED            3 OUTER ITERATIONS 
       AND A TOTAL OF          5 INNER ITERATIONS.
    ------------------------------------------------

 NO OUTPUT CONTROL FOR STRESS PERIOD   11   TIME STEP   15
 
 SOLVING FOR HEAD 
                                                   Max.-Head-Change                         Max.-Flux-Residual
  Residual-Control   Outer-Iter.   Inner-Iter.     Column Row Layer    Maximum-Head-Change  Column Row Layer    Maximum-Flux-Residual          L2-NORM 
          0                 1           2             4    7     1       0.7314803307E-02       4    7    1         0.3857980243E+00      0.7997696023E+00
          0                 2           2             4    7     1      -0.7115319307E-03       4    7    1        -0.3857987262E-01      0.7996759278E-01
          0                 3           1             4    7     1       0.4845267616E-04       4    7    1         0.2700591569E-02      0.5597037952E-02

    ------------------------------------------------
       NWT REQUIRED            3 OUTER ITERATIONS 
       AND A TOTAL OF          5 INNER ITERATIONS.
    ------------------------------------------------

 NO OUTPUT CONTROL FOR STRESS PERIOD   11   TIME STEP   16
 
 SOLVING FOR HEAD 
                                                   Max.-Head-Change                         Max.-Flux-Residual
  Residual-Control   Outer-Iter.   Inner-Iter.     Column Row Layer    Maximum-Head-Change  Column Row Layer    Maximum-Flux-Residual          L2-NORM 
          0                 1           2             4    7     1       0.7206275971E-02       4    7    1         0.3800797100E+00      0.7876827514E+00
          0                 2           2             4    7     1      -0.7009751576E-03       4    7    1        -0.3800803966E-01      0.7875993072E-01
          0                 3           1             4    7     1       0.4773379956E-04       4    7    1         0.2660563265E-02      0.5512342335E-02

    ------------------------------------------------
       NWT REQUIRED            3 OUTER ITERATIONS 
       AND A TOTAL OF          5 INNER ITERATIONS.
    ------------------------------------------------

 NO OUTPUT CONTROL FOR STRESS PERIOD   11   TIME STEP   17
 
 SOLVING FOR HEAD 
                                                   Max.-Head-Change                         Max.-Flux-Residual
  Residual-Control   Outer-Iter.   Inner-Iter.     Column Row Layer    Maximum-Head-Change  Column Row Layer    Maximum-Flux-Residual          L2-NORM 
          0                 1           2             4    7     1       0.7098975407E-02       4    7    1         0.3744230753E+00      0.7759219172E+00
          0                 2           2             4    7     1      -0.6905377165E-03       4    7    1        -0.3744237468E-01      0.7758480549E-01
          0                 3           1             4    7     1       0.4702304890E-04       4    7    1         0.2620966733E-02      0.5430234721E-02

    ------------------------------------------------
       NWT REQUIRED            3 OUTER ITERATIONS 
       AND A TOTAL OF          5 INNER ITERATIONS.
    ------------------------------------------------

 NO OUTPUT CONTROL FOR STRESS PERIOD   11   TIME STEP   18
 
 SOLVING FOR HEAD 
                                                   Max.-Head-Change                         Max.-Flux-Residual
  Residual-Control   Outer-Iter.   Inner-Iter.     Column Row Layer    Maximum-Head-Change  Column Row Layer    Maximum-Flux-Residual          L2-NORM 
          0                 1           2             4    7     1       0.6993466119E-02       4    7    1         0.3688596562E+00      0.7644791808E+00
          0                 2           2             4    7     1      -0.6802745173E-03       4    7    1        -0.3688603125E-01      0.7644132758E-01
          0                 3           1             4    7     1       0.4632416337E-04       4    7    1         0.2582022677E-02      0.5350297180E-02

    ------------------------------------------------
       NWT REQUIRED            3 OUTER ITERATIONS 
       AND A TOTAL OF          5 INNER ITERATIONS.
    ------------------------------------------------

 NO OUTPUT CONTROL FOR STRESS PERIOD   11   TIME STEP   19
 
 SOLVING FOR HEAD 
                                                   Max.-Head-Change                         Max.-Flux-Residual
  Residual-Control   Outer-Iter.   Inner-Iter.     Column Row Layer    Maximum-Head-Change  Column Row Layer    Maximum-Flux-Residual          L2-NORM 
          0                 1           2             4    7     1       0.6889470279E-02       4    7    1         0.3633743086E+00      0.7533415216E+00
          0                 2           2             4    7     1      -0.6701585355E-03       4    7    1        -0.3633749498E-01      0.7532834810E-01
          0                 3           1             4    7     1       0.4563530286E-04       4    7    1         0.2543625141E-02      0.5272458601E-02

    ------------------------------------------------
       NWT REQUIRED            3 OUTER ITERATIONS 
       AND A TOTAL OF          5 INNER ITERATIONS.
    ------------------------------------------------

 NO OUTPUT CONTROL FOR STRESS PERIOD   11   TIME STEP   20
 
 SOLVING FOR HEAD 
                                                   Max.-Head-Change                         Max.-Flux-Residual
  Residual-Control   Outer-Iter.   Inner-Iter.     Column Row Layer    Maximum-Head-Change  Column Row Layer    Maximum-Flux-Residual          L2-NORM 
          0                 1           2             4    7     1       0.6787265524E-02       4    7    1         0.3579822365E+00      0.7424953053E+00
          0                 2           2             4    7     1      -0.6602167777E-03       4    7    1        -0.3579828628E-01      0.7424435178E-01
          0                 3           1             4    7     1       0.4495830607E-04       4    7    1         0.2505880534E-02      0.5196656826E-02

    ------------------------------------------------
       NWT REQUIRED            3 OUTER ITERATIONS 
       AND A TOTAL OF          5 INNER ITERATIONS.
    ------------------------------------------------

 NO OUTPUT CONTROL FOR STRESS PERIOD   11   TIME STEP   21
 
 SOLVING FOR HEAD 
                                                   Max.-Head-Change                         Max.-Flux-Residual
  Residual-Control   Outer-Iter.   Inner-Iter.     Column Row Layer    Maximum-Head-Change  Column Row Layer    Maximum-Flux-Residual          L2-NORM 
          0                 1           2             4    7     1       0.6686296183E-02       4    7    1         0.3526534205E+00      0.7319217566E+00
          0                 2           2             4    7     1      -0.6503951922E-03       4    7    1        -0.3526540319E-01      0.7318751837E-01
          0                 3           1             4    7     1       0.4428949272E-04       4    7    1         0.2468578721E-02      0.5122682359E-02

    ------------------------------------------------
       NWT REQUIRED            3 OUTER ITERATIONS 
       AND A TOTAL OF          5 INNER ITERATIONS.
    ------------------------------------------------

 NO OUTPUT CONTROL FOR STRESS PERIOD   11   TIME STEP   22
 
 SOLVING FOR HEAD 
                                                   Max.-Head-Change                         Max.-Flux-Residual
  Residual-Control   Outer-Iter.   Inner-Iter.     Column Row Layer    Maximum-Head-Change  Column Row Layer    Maximum-Flux-Residual          L2-NORM 
          0                 1           2             4    7     1       0.6587118369E-02       4    7    1         0.3474182696E+00      0.7216207944E+00
          0                 2           2             4    7     1      -0.6407478732E-03       4    7    1        -0.3474188663E-01      0.7215786454E-01
          0                 3           1             4    7     1       0.4363254618E-04       4    7    1         0.2431932538E-02      0.5050631607E-02

    ------------------------------------------------
       NWT REQUIRED            3 OUTER ITERATIONS 
       AND A TOTAL OF          5 INNER ITERATIONS.
    ------------------------------------------------

 NO OUTPUT CONTROL FOR STRESS PERIOD   11   TIME STEP   23
 
 SOLVING FOR HEAD 
                                                   Max.-Head-Change                         Max.-Flux-Residual
  Residual-Control   Outer-Iter.   Inner-Iter.     Column Row Layer    Maximum-Head-Change  Column Row Layer    Maximum-Flux-Residual          L2-NORM 
          0                 1           2             4    7     1       0.6489442545E-02       4    7    1         0.3422612022E+00      0.7115737046E+00
          0                 2           2             4    7     1      -0.6312466578E-03       4    7    1        -0.3422617844E-01      0.7115363628E-01
          0                 3           1             4    7     1       0.4298554891E-04       4    7    1         0.2395832980E-02      0.4980383856E-02

    ------------------------------------------------
       NWT REQUIRED            3 OUTER ITERATIONS 
       AND A TOTAL OF          5 INNER ITERATIONS.
    ------------------------------------------------

 NO OUTPUT CONTROL FOR STRESS PERIOD   11   TIME STEP   24
 
 SOLVING FOR HEAD 
                                                   Max.-Head-Change                         Max.-Flux-Residual
  Residual-Control   Outer-Iter.   Inner-Iter.     Column Row Layer    Maximum-Head-Change  Column Row Layer    Maximum-Flux-Residual          L2-NORM 
          0                 1           2             4    7     1       0.6393538162E-02       4    7    1         0.3371968171E+00      0.7017869615E+00
          0                 2           2             4    7     1      -0.6219177557E-03       4    7    1        -0.3371973852E-01      0.7017533602E-01
          0                 3           1             4    7     1       0.4235028566E-04       4    7    1         0.2360382179E-02      0.4911968011E-02

    ------------------------------------------------
       NWT REQUIRED            3 OUTER ITERATIONS 
       AND A TOTAL OF          5 INNER ITERATIONS.
    ------------------------------------------------

 NO OUTPUT CONTROL FOR STRESS PERIOD   11   TIME STEP   25
 
 SOLVING FOR HEAD 
                                                   Max.-Head-Change                         Max.-Flux-Residual
  Residual-Control   Outer-Iter.   Inner-Iter.     Column Row Layer    Maximum-Head-Change  Column Row Layer    Maximum-Flux-Residual          L2-NORM 
          0                 1           2             4    7     1       0.6298842745E-02       4    7    1         0.3321946676E+00      0.6922322084E+00
          0                 2           2             4    7     1      -0.6127200867E-03       4    7    1        -0.3321952215E-01      0.6924931080E-01
          0                 3           1             4    7     1       0.4172395848E-04       4    7    1         0.2325367042E-02      0.4847242859E-02

    ------------------------------------------------
       NWT REQUIRED            3 OUTER ITERATIONS 
       AND A TOTAL OF          5 INNER ITERATIONS.
    ------------------------------------------------

 NO OUTPUT CONTROL FOR STRESS PERIOD   11   TIME STEP   26
 
 SOLVING FOR HEAD 
                                                   Max.-Head-Change                         Max.-Flux-Residual
  Residual-Control   Outer-Iter.   Inner-Iter.     Column Row Layer    Maximum-Head-Change  Column Row Layer    Maximum-Flux-Residual          L2-NORM 
          0                 1           2             4    7     1       0.6205839037E-02       4    7    1         0.3272840890E+00      0.6828902581E+00
          0                 2           2             4    7     1      -0.6036597127E-03       4    7    1        -0.3272846295E-01      0.6828633307E-01
          0                 3           1             4    7     1       0.4110698108E-04       4    7    1         0.2290992899E-02      0.4779791012E-02

    ------------------------------------------------
       NWT REQUIRED            3 OUTER ITERATIONS 
       AND A TOTAL OF          5 INNER ITERATIONS.
    ------------------------------------------------

 NO OUTPUT CONTROL FOR STRESS PERIOD   11   TIME STEP   27
 
 SOLVING FOR HEAD 
                                                   Max.-Head-Change                         Max.-Flux-Residual
  Residual-Control   Outer-Iter.   Inner-Iter.     Column Row Layer    Maximum-Head-Change  Column Row Layer    Maximum-Flux-Residual          L2-NORM 
          0                 1           2             4    7     1       0.6114271201E-02       4    7    1         0.3224478657E+00      0.6737269136E+00
          0                 2           2             4    7     1      -0.5947526396E-03       4    7    1        -0.3224483932E-01      0.6737029348E-01
          0                 3           1             4    7     1       0.4050044287E-04       4    7    1         0.2257139246E-02      0.4715699905E-02

    ------------------------------------------------
       NWT REQUIRED            3 OUTER ITERATIONS 
       AND A TOTAL OF          5 INNER ITERATIONS.
    ------------------------------------------------

 NO OUTPUT CONTROL FOR STRESS PERIOD   11   TIME STEP   28
 
 SOLVING FOR HEAD 
                                                   Max.-Head-Change                         Max.-Flux-Residual
  Residual-Control   Outer-Iter.   Inner-Iter.     Column Row Layer    Maximum-Head-Change  Column Row Layer    Maximum-Flux-Residual          L2-NORM 
          0                 1           2             4    7     1       0.6024395575E-02       4    7    1         0.3177001730E+00      0.6647894427E+00
          0                 2           2             4    7     1      -0.5860101720E-03       4    7    1        -0.3177006874E-01      0.6647679407E-01
          0                 3           1             4    7     1       0.3990511256E-04       4    7    1         0.2223905263E-02      0.4653153092E-02

    ------------------------------------------------
       NWT REQUIRED            3 OUTER ITERATIONS 
       AND A TOTAL OF          5 INNER ITERATIONS.
    ------------------------------------------------

 NO OUTPUT CONTROL FOR STRESS PERIOD   11   TIME STEP   29
 
 SOLVING FOR HEAD 
                                                   Max.-Head-Change                         Max.-Flux-Residual
  Residual-Control   Outer-Iter.   Inner-Iter.     Column Row Layer    Maximum-Head-Change  Column Row Layer    Maximum-Flux-Residual          L2-NORM 
          0                 1           2             4    7     1       0.5935918826E-02       4    7    1         0.3130254132E+00      0.6560601777E+00
          0                 2           2             4    7     1      -0.5774037776E-03       4    7    1        -0.3130259145E-01      0.6560405343E-01
          0                 3           1             4    7     1       0.3931904942E-04       4    7    1         0.2191181868E-02      0.4592148314E-02

    ------------------------------------------------
       NWT REQUIRED            3 OUTER ITERATIONS 
       AND A TOTAL OF          5 INNER ITERATIONS.
    ------------------------------------------------

 NO OUTPUT CONTROL FOR STRESS PERIOD   11   TIME STEP   30



 STREAM LISTING     PERIOD     11   STEP       30

 LAYER ROW COL. STREAM  RCH.  FLOW INTO     FLOW TO   FLOW OUT OF   OVRLND.     DIRECT     STREAM       STREAM     STREAM     STREAM   STREAMBED  STREAMBED
                SEG.NO.  NO.  STRM. RCH.    AQUIFER    STRM. RCH.    RUNOFF     PRECIP       ET          HEAD       DEPTH      WIDTH   CONDCTNC.   GRADIENT

   1    1    1     1     1    2.6250E+01  2.5084E-01   2.5999E+01  0.000E+00  0.000E+00  0.000E+00  1.09424E+03  1.197E+00  1.328E+01  5.977E-02  1.399E+00
   1    2    2     1     2    2.5999E+01  3.8795E-01   2.5611E+01  0.000E+00  0.000E+00  0.000E+00  1.08925E+03  1.192E+00  1.322E+01  9.255E-02  1.397E+00
   1    3    3     1     3    2.5611E+01  3.3035E-01   2.5281E+01  0.000E+00  0.000E+00  0.000E+00  1.08361E+03  1.187E+00  1.315E+01  7.890E-02  1.396E+00
   1    3    4     1     4    2.5281E+01  3.0378E-01   2.4977E+01  0.000E+00  0.000E+00  0.000E+00  1.07859E+03  1.182E+00  1.309E+01  7.264E-02  1.394E+00
   1    4    5     2     1    2.2977E+01  3.2316E-01   2.2654E+01  0.000E+00  0.000E+00  0.000E+00  1.07308E+03  1.143E+00  1.200E+01  7.800E-02  1.381E+00
   1    5    6     2     2    2.2654E+01  2.4807E-01   2.2406E+01  0.000E+00  0.000E+00  0.000E+00  1.06764E+03  1.134E+00  1.200E+01  6.000E-02  1.378E+00
   1    6    6     2     3    2.2406E+01  2.4762E-01   2.2158E+01  0.000E+00  0.000E+00  0.000E+00  1.06292E+03  1.127E+00  1.200E+01  6.000E-02  1.376E+00
   1    7    6     2     4    2.2158E+01  2.4717E-01   2.1911E+01  0.000E+00  0.000E+00  0.000E+00  1.05819E+03  1.119E+00  1.200E+01  6.000E-02  1.373E+00
   1    8    6     2     5    2.1911E+01  2.4671E-01   2.1664E+01  0.000E+00  0.000E+00  0.000E+00  1.05347E+03  1.112E+00  1.200E+01  6.000E-02  1.371E+00
   1    3    5     3     1    2.0000E+00  2.8252E-01   1.7175E+00  0.000E+00  0.000E+00  0.000E+00  1.07555E+03  1.909E+00  9.636E+00  7.227E-02  1.955E+00
   1    3    6     3     2    1.7175E+00  2.4905E-01   1.4684E+00  0.000E+00  0.000E+00  0.000E+00  1.07264E+03  1.727E+00  8.909E+00  6.682E-02  1.864E+00
   1    3    7     3     3    1.4684E+00  1.9718E-01   1.2712E+00  0.000E+00  0.000E+00  0.000E+00  1.06987E+03  1.555E+00  8.218E+00  5.547E-02  1.777E+00
   1    4    8     3     4    1.2712E+00  2.2567E-01   1.0456E+00  0.000E+00  0.000E+00  0.000E+00  1.06682E+03  1.364E+00  7.455E+00  6.709E-02  1.682E+00
   1    5    8     3     5    1.0456E+00  1.5790E-01   8.8768E-01  0.000E+00  0.000E+00  0.000E+00  1.06362E+03  1.164E+00  6.655E+00  4.991E-02  1.582E+00
   1    6    8     3     6    8.8768E-01  5.5980E-02   8.3170E-01  0.000E+00  0.000E+00  0.000E+00  1.06158E+03  1.036E+00  6.145E+00  1.844E-02  1.518E+00
   1    5   10     4     1    1.0000E+01  9.0919E-02   9.9091E+00  0.000E+00  0.000E+00  0.000E+00  1.07836E+03  6.368E-01  1.000E+01  2.500E-02  1.212E+00
   1    5    9     4     2    9.9091E+00  1.8158E-01   9.7275E+00  0.000E+00  0.000E+00  0.000E+00  1.07154E+03  6.315E-01  1.000E+01  5.000E-02  1.211E+00
   1    6    8     4     3    9.7275E+00  1.2689E-01   9.6006E+00  0.000E+00  0.000E+00  0.000E+00  1.06381E+03  6.256E-01  1.000E+01  3.500E-02  1.209E+00
   1    6    8     5     1    1.0432E+01  2.2686E-01   1.0205E+01  0.000E+00  0.000E+00  0.000E+00  1.05868E+03  6.790E-01  1.542E+01  6.166E-02  1.226E+00
   1    7    7     5     2    1.0205E+01  2.7894E-01   9.9265E+00  0.000E+00  0.000E+00  0.000E+00  1.05417E+03  6.732E-01  1.519E+01  7.594E-02  1.224E+00
   1    8    7     5     3    9.9265E+00  1.9221E-01   9.7343E+00  0.000E+00  0.000E+00  0.000E+00  1.04992E+03  6.676E-01  1.497E+01  5.241E-02  1.223E+00
   1    8    6     5     4    9.7343E+00  1.3577E-01   9.5985E+00  0.000E+00  0.000E+00  0.000E+00  1.04691E+03  6.637E-01  1.482E+01  3.706E-02  1.221E+00
   1    9    6     6     1    3.1263E+01  2.6357E-01   3.0999E+01  0.000E+00  0.000E+00  0.000E+00  1.04412E+03  1.393E+00  1.200E+01  6.000E-02  1.464E+00
   1   10    7     6     2    3.0999E+01  2.6314E-01   3.0736E+01  0.000E+00  0.000E+00  0.000E+00  1.03957E+03  1.386E+00  1.200E+01  6.000E-02  1.462E+00
   1   11    7     6     3    3.0736E+01  2.6272E-01   3.0473E+01  0.000E+00  0.000E+00  0.000E+00  1.03502E+03  1.379E+00  1.200E+01  6.000E-02  1.460E+00
   1   12    7     6     4    3.0473E+01  2.6229E-01   3.0211E+01  0.000E+00  0.000E+00  0.000E+00  1.03046E+03  1.372E+00  1.200E+01  6.000E-02  1.457E+00
   1   13    7     6     5    3.0211E+01  3.4387E-03   3.0208E+01  0.000E+00  0.000E+00  0.000E+00  1.02728E+03  1.368E+00  1.200E+01  2.400E-02  4.776E-02
   1   14    9     7     1    1.5000E+02  1.3361E+00   1.4866E+02  0.000E+00  0.000E+00  0.000E+00  1.03987E+03  2.288E+00  5.529E+01  5.593E-01  7.963E-01
   1   13    8     7     2    1.4866E+02  1.8227E+00   1.4684E+02  0.000E+00  0.000E+00  0.000E+00  1.03478E+03  2.279E+00  5.526E+01  6.148E-01  9.883E-01
   1   13    7     7     3    1.4684E+02  1.4276E+00   1.4541E+02  0.000E+00  0.000E+00  0.000E+00  1.02969E+03  2.271E+00  5.522E+01  5.585E-01  8.521E-01
   1   13    6     8     1    1.7562E+02  8.9471E-01   1.7473E+02  0.000E+00  0.000E+00  0.000E+00  1.02486E+03  2.986E+00  4.329E+01  4.411E-01  6.760E-01
   1   13    5     8     2    1.7473E+02  1.3569E-01   1.7459E+02  0.000E+00  0.000E+00  0.000E+00  1.01861E+03  2.982E+00  4.324E+01  4.407E-01  1.026E-01
   1   13    4     8     3    1.7459E+02 -2.6021E+00   1.7719E+02  0.000E+00  0.000E+00  0.000E+00  1.01237E+03  2.990E+00  4.336E+01  4.418E+00 -1.963E-01
   1   13    3     8     4    1.7719E+02 -3.7181E+00   1.8091E+02  0.000E+00  0.000E+00  0.000E+00  1.00614E+03  3.010E+00  4.365E+01  4.448E+00 -2.786E-01
   1   13    2     8     5    1.8091E+02 -2.5731E+00   1.8348E+02  0.000E+00  0.000E+00  0.000E+00  9.99905E+02  3.030E+00  4.393E+01  4.477E+00 -1.916E-01
   1   13    1     8     6    1.8348E+02 -1.9607E+00   1.8544E+02  0.000E+00  0.000E+00  0.000E+00  9.94919E+02  3.044E+00  4.414E+01  2.699E+00 -2.422E-01
   1    8    6     9     1    0.0000E+00  0.0000E+00   0.0000E+00  0.000E+00  0.000E+00  0.000E+00  1.07875E+03  0.000E+00  4.000E+00  0.000E+00  1.000E+00
   1    8    5     9     2    0.0000E+00  0.0000E+00   0.0000E+00  0.000E+00  0.000E+00  0.000E+00  1.07825E+03  0.000E+00  4.000E+00  0.000E+00  1.000E+00





UNSATURATED ZONE PACKAGE VOLUMETRIC BUDGET FOR  TIME STEP    30 STRESS PERIOD   11
  ------------------------------------------------------------------------------



     CUMULATIVE VOLUMES      L**3       RATES FOR THIS TIME STEP      L**3/T
     ------------------                 ------------------------

           IN:                                      IN:
           ---                                      ---
        INFILTRATION =   516735441.0481          INFILTRATION =           4.4075

          OUT:                                     OUT:
          ----                                     ----
              UZF ET =   494346496.0781                UZF ET =           3.7804
        UZF RECHARGE =       73224.0000          UZF RECHARGE =       0.0000E+00

            IN - OUT =    22315720.9700              IN - OUT =           0.6271

          STORAGE:                                 STORAGE:
          --------                                 --------
      STORAGE CHANGE =    22315712.1060        STORAGE CHANGE =           0.6271

 PERCENT DISCREPANCY IS DIFFERENCE BETWEEN IN-OUT MINUS CHANGE IN STORAGE
 DIVIDED BY THE AVERAGE OF IN AND OUT TIMES 100

 PERCENT DISCREPANCY =           0.00     PERCENT DISCREPANCY =           0.00






1
  VOLUMETRIC BUDGET FOR ENTIRE MODEL AT END OF TIME STEP   30, STRESS PERIOD  11
  ------------------------------------------------------------------------------

     CUMULATIVE VOLUMES      L**3       RATES FOR THIS TIME STEP      L**3/T
     ------------------                 ------------------------

           IN:                                      IN:
           ---                                      ---
               AG WELLS  =    44426692.0000                 AG WELLS  =           0.0000
      DIVERSION SEGMENTS =   356311200.0000        DIVERSION SEGMENTS =           0.0000
           GW IRRIGATION =           0.0000             GW IRRIGATION =           0.0000
           SW IRRIGATION =           0.0000             SW IRRIGATION =           0.0000
        SYSTEM LOSSES GW =           0.0000          SYSTEM LOSSES GW =           0.0000
        SYSTEM LOSSES SW =           0.0000          SYSTEM LOSSES SW =           0.0000

                TOTAL IN =   400737888.0000                  TOTAL IN =           0.0000

          OUT:                                     OUT:
          ----                                     ----
               AG WELLS  =           0.0000                 AG WELLS  =           0.0000
      DIVERSION SEGMENTS =           0.0000        DIVERSION SEGMENTS =           0.0000
           GW IRRIGATION =    44426692.0000             GW IRRIGATION =           0.0000
           SW IRRIGATION =   356318336.0000             SW IRRIGATION =           0.0000
        SYSTEM LOSSES GW =           0.0000          SYSTEM LOSSES GW =           0.0000
        SYSTEM LOSSES SW =           0.0000          SYSTEM LOSSES SW =           0.0000

               TOTAL OUT =   400745024.0000                 TOTAL OUT =           0.0000

                IN - OUT =       -7136.0000                  IN - OUT =           0.0000

     PERCENT DISCREPANCY =          -0.00         PERCENT DISCREPANCY =           0.00



1
  VOLUMETRIC BUDGET FOR ENTIRE MODEL AT END OF TIME STEP   30, STRESS PERIOD  11
  ------------------------------------------------------------------------------

     CUMULATIVE VOLUMES      L**3       RATES FOR THIS TIME STEP      L**3/T
     ------------------                 ------------------------

           IN:                                      IN:
           ---                                      ---
             STORAGE     =    73007784.0000               STORAGE     =           1.3845
       CONSTANT HEAD     =           0.0000         CONSTANT HEAD     =           0.0000
     HEAD DEP BOUNDS     =     7540044.5000       HEAD DEP BOUNDS     =           0.2858
      STREAM LEAKAGE     =   319597760.0000        STREAM LEAKAGE     =          11.6591
        UZF RECHARGE     =       73223.9531          UZF RECHARGE     =           0.0000
               GW ET     =           0.0000                 GW ET     =           0.0000
     SURFACE LEAKAGE     =           0.0000       SURFACE LEAKAGE     =           0.0000
           AG WELLS      =           0.0000             AG WELLS      =           0.0000

                TOTAL IN =   400218816.0000                  TOTAL IN =          13.3293

          OUT:                                     OUT:
          ----                                     ----
             STORAGE     =    61863312.0000               STORAGE     =           2.1849
       CONSTANT HEAD     =           0.0000         CONSTANT HEAD     =           0.0000
     HEAD DEP BOUNDS     =     7677140.0000       HEAD DEP BOUNDS     =           0.2905
      STREAM LEAKAGE     =   284735936.0000        STREAM LEAKAGE     =          10.8540
        UZF RECHARGE     =           0.0000          UZF RECHARGE     =           0.0000
               GW ET     =     1517575.6250                 GW ET     =           0.0000
     SURFACE LEAKAGE     =           0.0000       SURFACE LEAKAGE     =           0.0000
           AG WELLS      =    44426692.0000             AG WELLS      =           0.0000

               TOTAL OUT =   400220640.0000                 TOTAL OUT =          13.3295

                IN - OUT =       -1824.0000                  IN - OUT =      -2.2411E-04

     PERCENT DISCREPANCY =          -0.00         PERCENT DISCREPANCY =          -0.00






         TIME SUMMARY AT END OF TIME STEP   30 IN STRESS PERIOD   11
                    SECONDS     MINUTES      HOURS       DAYS        YEARS
                    -----------------------------------------------------------
   TIME STEP LENGTH  87667.      1461.1      24.352      1.0147     2.77799E-03
 STRESS PERIOD TIME 2.63000E+06  43833.      730.56      30.440     8.33397E-02
         TOTAL TIME 2.63864E+07 4.39773E+05  7329.5      305.40     0.83613    
1
1
                            STRESS PERIOD NO.   12, LENGTH =   2630000.    
                            -----------------------------------------------

                              NUMBER OF TIME STEPS =    30

                               MULTIPLIER FOR DELT =     1.000

                            INITIAL TIME STEP SIZE =   87666.66    

 REUSING NON-PARAMETER GHB CELLS FROM LAST STRESS PERIOD

      2 GHB CELLS

 REUSING STREAM SEGMENT DATA FROM LAST STRESS PERIOD



            AREAL INFILTRATION RATE
 READING ON UNIT   19 WITH FORMAT: (10F4.0)            

            1           2           3           4           5           6           7           8           9          10
 ........................................................................................................................
   1   1.2000E-09   0.000       0.000       0.000       0.000       0.000       0.000       0.000       0.000       0.000    
   2   2.1000E-09  2.0000E-09  8.0000E-10  8.5000E-09   0.000       0.000       0.000       0.000       0.000       0.000    
   3   5.0000E-10  1.1000E-09  8.8000E-09  5.5000E-09   0.000       0.000       0.000       0.000       0.000       0.000    
   4   8.5000E-09  1.1000E-09  1.1000E-09  1.1000E-09  2.0000E-09   0.000       0.000       0.000       0.000       0.000    
   5   8.5000E-09  1.1000E-09  1.1000E-09  1.1000E-09  1.1000E-09   0.000       0.000       0.000       0.000       0.000    
   6   8.5000E-09  5.2000E-09  2.1000E-09  1.1000E-09  1.5000E-09   0.000       0.000       0.000       0.000       0.000    
   7   8.5000E-09  5.2000E-09  2.1000E-09  1.2000E-09  2.0000E-09   0.000       0.000       0.000       0.000       0.000    
   8   5.0000E-10  5.2000E-09  2.1000E-09  1.2000E-09  5.0000E-09   0.000       0.000       0.000       0.000       0.000    
   9   5.0000E-10  5.2000E-09  2.1000E-09  1.2000E-09  5.0000E-09   0.000       0.000       0.000       0.000       0.000    
  10   5.0000E-10  5.2000E-09  2.1000E-09  1.2000E-09  5.8000E-09   0.000       0.000       0.000       0.000       0.000    
  11   1.0000E-10  1.1000E-09  1.1000E-09  1.2000E-09  5.0000E-09   0.000       0.000       0.000       0.000       0.000    
  12   1.1000E-09  1.1000E-09  1.1000E-09  1.1000E-09  2.0000E-09   0.000       0.000       0.000       0.000       0.000    
  13   1.1000E-09  2.2000E-09  2.2000E-09  2.1000E-09  1.0000E-09   0.000       0.000       0.000       0.000       0.000    
  14   2.0000E-10  5.5000E-09  5.5000E-09  5.2000E-09  1.0000E-09   0.000       0.000       0.000       0.000       0.000    
  15    0.000      8.8000E-09  8.8000E-09   0.000       0.000       0.000       0.000       0.000       0.000       0.000    

                  ET RATE =  5.000000E-10

 USING ET EXTINCTION DEPTH FROM PREVIOUS STRESS PERIOD. CURRENT PERIOD IS:      12

 USING EXTINCTION WATER CONTENT FROM PREVIOUS STRESS PERIOD. CURRENT PERIOD IS:      12

 USING AIR ENTRY PRESSURE FROM PREVIOUS STRESS PERIOD. CURRENT PERIOD IS:      12

 USING ROOT PRESSURE HEAD FROM PREVIOUS STRESS PERIOD. CURRENT PERIOD IS:      12

 USING ROOT ACTIVITY FROM PREVIOUS STRESS PERIOD. CURRENT PERIOD IS:      12

 PROCESSING AG STRESS PERIOD DATA

 READING AG STRESS PERIOD DATA

 READING IRRIGATION SEGMENT

 READING IRRIGATION WELL

 READING SUPPLEMENTAL WELL

 END PROCESSING AG STRESS PERIOD DATA OPTIONS
 
 SOLVING FOR HEAD 
                                                   Max.-Head-Change                         Max.-Flux-Residual
  Residual-Control   Outer-Iter.   Inner-Iter.     Column Row Layer    Maximum-Head-Change  Column Row Layer    Maximum-Flux-Residual          L2-NORM 
          0                 1           2             4    7     1       0.5848786162E-02       4    7    1         0.3084231834E+00      0.6750757849E+00
          0                 2           2             4    7     1      -0.5689281265E-03       4    7    1        -0.3084236721E-01      0.6748287472E-01
          0                 3           1             4    7     1       0.3874188922E-04       4    7    1         0.2158966181E-02      0.4710795755E-02

    ------------------------------------------------
       NWT REQUIRED            3 OUTER ITERATIONS 
       AND A TOTAL OF          5 INNER ITERATIONS.
    ------------------------------------------------

 NO OUTPUT CONTROL FOR STRESS PERIOD   12   TIME STEP    1
 
 SOLVING FOR HEAD 
                                                   Max.-Head-Change                         Max.-Flux-Residual
  Residual-Control   Outer-Iter.   Inner-Iter.     Column Row Layer    Maximum-Head-Change  Column Row Layer    Maximum-Flux-Residual          L2-NORM 
          0                 1           2             4    7     1       0.5763255532E-02       4    7    1         0.3039054493E+00      0.6747360902E+00
          0                 2           2             4    7     1      -0.5606083103E-03       4    7    1        -0.3039059258E-01      0.6729329368E-01
          0                 3           1             4    7     1       0.3817534074E-04       4    7    1         0.2127341950E-02      0.4694094878E-02

    ------------------------------------------------
       NWT REQUIRED            3 OUTER ITERATIONS 
       AND A TOTAL OF          5 INNER ITERATIONS.
    ------------------------------------------------

 NO OUTPUT CONTROL FOR STRESS PERIOD   12   TIME STEP    2
 
 SOLVING FOR HEAD 
                                                   Max.-Head-Change                         Max.-Flux-Residual
  Residual-Control   Outer-Iter.   Inner-Iter.     Column Row Layer    Maximum-Head-Change  Column Row Layer    Maximum-Flux-Residual          L2-NORM 
          0                 1           2             4    7     1       0.5678763455E-02       4    7    1         0.2994411645E+00      0.6613816976E+00
          0                 2           2             4    7     1      -0.5523895175E-03       4    7    1        -0.2994416290E-01      0.6598142067E-01
          0                 3           1             4    7     1       0.3761567165E-04       4    7    1         0.2096091875E-02      0.4604538085E-02

    ------------------------------------------------
       NWT REQUIRED            3 OUTER ITERATIONS 
       AND A TOTAL OF          5 INNER ITERATIONS.
    ------------------------------------------------

 NO OUTPUT CONTROL FOR STRESS PERIOD   12   TIME STEP    3
 
 SOLVING FOR HEAD 
                                                   Max.-Head-Change                         Max.-Flux-Residual
  Residual-Control   Outer-Iter.   Inner-Iter.     Column Row Layer    Maximum-Head-Change  Column Row Layer    Maximum-Flux-Residual          L2-NORM 
          0                 1           2             4    7     1       0.5596123743E-02       4    7    1         0.2950751494E+00      0.6489215855E+00
          0                 2           2             4    7     1      -0.5443509093E-03       4    7    1        -0.2950756023E-01      0.6475612097E-01
          0                 3           1             4    7     1       0.3706827217E-04       4    7    1         0.2065529663E-02      0.4520613215E-02

    ------------------------------------------------
       NWT REQUIRED            3 OUTER ITERATIONS 
       AND A TOTAL OF          5 INNER ITERATIONS.
    ------------------------------------------------

 NO OUTPUT CONTROL FOR STRESS PERIOD   12   TIME STEP    4
 
 SOLVING FOR HEAD 
                                                   Max.-Head-Change                         Max.-Flux-Residual
  Residual-Control   Outer-Iter.   Inner-Iter.     Column Row Layer    Maximum-Head-Change  Column Row Layer    Maximum-Flux-Residual          L2-NORM 
          0                 1           2             4    7     1       0.5514486917E-02       4    7    1         0.2907607550E+00      0.6372280839E+00
          0                 2           2             4    7     1      -0.5364098547E-03       4    7    1        -0.2907611961E-01      0.6360436402E-01
          0                 3           1             4    7     1       0.3652751587E-04       4    7    1         0.2035328821E-02      0.4441580927E-02

    ------------------------------------------------
       NWT REQUIRED            3 OUTER ITERATIONS 
       AND A TOTAL OF          5 INNER ITERATIONS.
    ------------------------------------------------

 NO OUTPUT CONTROL FOR STRESS PERIOD   12   TIME STEP    5
 
 SOLVING FOR HEAD 
                                                   Max.-Head-Change                         Max.-Flux-Residual
  Residual-Control   Outer-Iter.   Inner-Iter.     Column Row Layer    Maximum-Head-Change  Column Row Layer    Maximum-Flux-Residual          L2-NORM 
          0                 1           2             4    7     1       0.5434673958E-02       4    7    1         0.2865427821E+00      0.6262347325E+00
          0                 2           2             4    7     1      -0.5286462142E-03       4    7    1        -0.2865432122E-01      0.6252109694E-01
          0                 3           1             4    7     1       0.3599884151E-04       4    7    1         0.2005802952E-02      0.4367320325E-02

    ------------------------------------------------
       NWT REQUIRED            3 OUTER ITERATIONS 
       AND A TOTAL OF          5 INNER ITERATIONS.
    ------------------------------------------------

 NO OUTPUT CONTROL FOR STRESS PERIOD   12   TIME STEP    6
 
 SOLVING FOR HEAD 
                                                   Max.-Head-Change                         Max.-Flux-Residual
  Residual-Control   Outer-Iter.   Inner-Iter.     Column Row Layer    Maximum-Head-Change  Column Row Layer    Maximum-Flux-Residual          L2-NORM 
          0                 1           2             4    7     1       0.5355835084E-02       4    7    1         0.2823749512E+00      0.6158315278E+00
          0                 2           2             4    7     1      -0.5209773245E-03       4    7    1        -0.2823753700E-01      0.6149343122E-01
          0                 3           1             4    7     1       0.3547661862E-04       4    7    1         0.1976628049E-02      0.4296299058E-02

    ------------------------------------------------
       NWT REQUIRED            3 OUTER ITERATIONS 
       AND A TOTAL OF          5 INNER ITERATIONS.
    ------------------------------------------------

 NO OUTPUT CONTROL FOR STRESS PERIOD   12   TIME STEP    7
 
 SOLVING FOR HEAD 
                                                   Max.-Head-Change                         Max.-Flux-Residual
  Residual-Control   Outer-Iter.   Inner-Iter.     Column Row Layer    Maximum-Head-Change  Column Row Layer    Maximum-Flux-Residual          L2-NORM 
          0                 1           2             4    7     1       0.5278511636E-02       4    7    1         0.2782872415E+00      0.6059781078E+00
          0                 2           2             4    7     1      -0.5134558457E-03       4    7    1        -0.2782876495E-01      0.6051972202E-01
          0                 3           1             4    7     1       0.3496443375E-04       4    7    1         0.1948014007E-02      0.4229113284E-02

    ------------------------------------------------
       NWT REQUIRED            3 OUTER ITERATIONS 
       AND A TOTAL OF          5 INNER ITERATIONS.
    ------------------------------------------------

 NO OUTPUT CONTROL FOR STRESS PERIOD   12   TIME STEP    8
 
 SOLVING FOR HEAD 
                                                   Max.-Head-Change                         Max.-Flux-Residual
  Residual-Control   Outer-Iter.   Inner-Iter.     Column Row Layer    Maximum-Head-Change  Column Row Layer    Maximum-Flux-Residual          L2-NORM 
          0                 1           2             4    7     1       0.5202402116E-02       4    7    1         0.2742632968E+00      0.5965955357E+00
          0                 2           2             4    7     1      -0.5060524485E-03       4    7    1        -0.2742636940E-01      0.5959155485E-01
          0                 3           1             4    7     1       0.3446028987E-04       4    7    1         0.1919846304E-02      0.4165060277E-02

    ------------------------------------------------
       NWT REQUIRED            3 OUTER ITERATIONS 
       AND A TOTAL OF          5 INNER ITERATIONS.
    ------------------------------------------------

 NO OUTPUT CONTROL FOR STRESS PERIOD   12   TIME STEP    9
 
 SOLVING FOR HEAD 
                                                   Max.-Head-Change                         Max.-Flux-Residual
  Residual-Control   Outer-Iter.   Inner-Iter.     Column Row Layer    Maximum-Head-Change  Column Row Layer    Maximum-Flux-Residual          L2-NORM 
          0                 1           2             4    7     1       0.5127768598E-02       4    7    1         0.2703171011E+00      0.5876501101E+00
          0                 2           2             4    7     1      -0.4987926274E-03       4    7    1        -0.2703174880E-01      0.5870597551E-01
          0                 3           1             4    7     1       0.3396592319E-04       4    7    1         0.1892222881E-02      0.4103973169E-02

    ------------------------------------------------
       NWT REQUIRED            3 OUTER ITERATIONS 
       AND A TOTAL OF          5 INNER ITERATIONS.
    ------------------------------------------------

 NO OUTPUT CONTROL FOR STRESS PERIOD   12   TIME STEP   10
 
 SOLVING FOR HEAD 
                                                   Max.-Head-Change                         Max.-Flux-Residual
  Residual-Control   Outer-Iter.   Inner-Iter.     Column Row Layer    Maximum-Head-Change  Column Row Layer    Maximum-Flux-Residual          L2-NORM 
          0                 1           2             4    7     1       0.5054313852E-02       4    7    1         0.2664326261E+00      0.5790860775E+00
          0                 2           2             4    7     1      -0.4916474685E-03       4    7    1        -0.2664330028E-01      0.5785766110E-01
          0                 3           1             4    7     1       0.3347936459E-04       4    7    1         0.1865031476E-02      0.4046019551E-02

    ------------------------------------------------
       NWT REQUIRED            3 OUTER ITERATIONS 
       AND A TOTAL OF          5 INNER ITERATIONS.
    ------------------------------------------------

 NO OUTPUT CONTROL FOR STRESS PERIOD   12   TIME STEP   11
 
 SOLVING FOR HEAD 
                                                   Max.-Head-Change                         Max.-Flux-Residual
  Residual-Control   Outer-Iter.   Inner-Iter.     Column Row Layer    Maximum-Head-Change  Column Row Layer    Maximum-Flux-Residual          L2-NORM 
          0                 1           2             4    7     1       0.4982294730E-02       4    7    1         0.2626240777E+00      0.5708765753E+00
          0                 2           2             4    7     1      -0.4846419573E-03       4    7    1        -0.2626244447E-01      0.5704263048E-01
          0                 3           1             4    7     1       0.3300231506E-04       4    7    1         0.1838371550E-02      0.3988644342E-02

    ------------------------------------------------
       NWT REQUIRED            3 OUTER ITERATIONS 
       AND A TOTAL OF          5 INNER ITERATIONS.
    ------------------------------------------------

 NO OUTPUT CONTROL FOR STRESS PERIOD   12   TIME STEP   12
 
 SOLVING FOR HEAD 
                                                   Max.-Head-Change                         Max.-Flux-Residual
  Residual-Control   Outer-Iter.   Inner-Iter.     Column Row Layer    Maximum-Head-Change  Column Row Layer    Maximum-Flux-Residual          L2-NORM 
          0                 1           2             4    7     1       0.4911413343E-02       4    7    1         0.2588751559E+00      0.5629850851E+00
          0                 2           2             4    7     1      -0.4777471169E-03       4    7    1        -0.2588755132E-01      0.5625924626E-01
          0                 3           1             4    7     1       0.3253280262E-04       4    7    1         0.1812129050E-02      0.3934481809E-02

    ------------------------------------------------
       NWT REQUIRED            3 OUTER ITERATIONS 
       AND A TOTAL OF          5 INNER ITERATIONS.
    ------------------------------------------------

 NO OUTPUT CONTROL FOR STRESS PERIOD   12   TIME STEP   13
 
 SOLVING FOR HEAD 
                                                   Max.-Head-Change                         Max.-Flux-Residual
  Residual-Control   Outer-Iter.   Inner-Iter.     Column Row Layer    Maximum-Head-Change  Column Row Layer    Maximum-Flux-Residual          L2-NORM 
          0                 1           2             4    7     1       0.4841921244E-02       4    7    1         0.2552000334E+00      0.5553699576E+00
          0                 2           2             4    7     1      -0.4709874163E-03       4    7    1        -0.2552003812E-01      0.5550298310E-01
          0                 3           1             4    7     1       0.3207249204E-04       4    7    1         0.1786403104E-02      0.3882142010E-02

    ------------------------------------------------
       NWT REQUIRED            3 OUTER ITERATIONS 
       AND A TOTAL OF          5 INNER ITERATIONS.
    ------------------------------------------------

 NO OUTPUT CONTROL FOR STRESS PERIOD   12   TIME STEP   14
 
 SOLVING FOR HEAD 
                                                   Max.-Head-Change                         Max.-Flux-Residual
  Residual-Control   Outer-Iter.   Inner-Iter.     Column Row Layer    Maximum-Head-Change  Column Row Layer    Maximum-Flux-Residual          L2-NORM 
          0                 1           2             4    7     1       0.4773523913E-02       4    7    1         0.2515821346E+00      0.5480198006E+00
          0                 2           2             4    7     1      -0.4643342080E-03       4    7    1        -0.2515824735E-01      0.5477207253E-01
          0                 3           1             4    7     1       0.3161943337E-04       4    7    1         0.1761077749E-02      0.3831239909E-02

    ------------------------------------------------
       NWT REQUIRED            3 OUTER ITERATIONS 
       AND A TOTAL OF          5 INNER ITERATIONS.
    ------------------------------------------------

 NO OUTPUT CONTROL FOR STRESS PERIOD   12   TIME STEP   15
 
 SOLVING FOR HEAD 
                                                   Max.-Head-Change                         Max.-Flux-Residual
  Residual-Control   Outer-Iter.   Inner-Iter.     Column Row Layer    Maximum-Head-Change  Column Row Layer    Maximum-Flux-Residual          L2-NORM 
          0                 1           2             4    7     1       0.4706211316E-02       4    7    1         0.2480209983E+00      0.5409152545E+00
          0                 2           2             4    7     1      -0.4577865142E-03       4    7    1        -0.2480213280E-01      0.5406530831E-01
          0                 3           1             4    7     1       0.3117355986E-04       4    7    1         0.1736149728E-02      0.3782148204E-02

    ------------------------------------------------
       NWT REQUIRED            3 OUTER ITERATIONS 
       AND A TOTAL OF          5 INNER ITERATIONS.
    ------------------------------------------------

 NO OUTPUT CONTROL FOR STRESS PERIOD   12   TIME STEP   16
 
 SOLVING FOR HEAD 
                                                   Max.-Head-Change                         Max.-Flux-Residual
  Residual-Control   Outer-Iter.   Inner-Iter.     Column Row Layer    Maximum-Head-Change  Column Row Layer    Maximum-Flux-Residual          L2-NORM 
          0                 1           2             4    7     1       0.4640235280E-02       4    7    1         0.2445309137E+00      0.5340349723E+00
          0                 2           2             4    7     1      -0.4513688321E-03       4    7    1        -0.2445312346E-01      0.5338040007E-01
          0                 3           1             4    7     1       0.3073653959E-04       4    7    1         0.1711719075E-02      0.3734391754E-02

    ------------------------------------------------
       NWT REQUIRED            3 OUTER ITERATIONS 
       AND A TOTAL OF          5 INNER ITERATIONS.
    ------------------------------------------------

 NO OUTPUT CONTROL FOR STRESS PERIOD   12   TIME STEP   17
 
 SOLVING FOR HEAD 
                                                   Max.-Head-Change                         Max.-Flux-Residual
  Residual-Control   Outer-Iter.   Inner-Iter.     Column Row Layer    Maximum-Head-Change  Column Row Layer    Maximum-Flux-Residual          L2-NORM 
          0                 1           2             4    7     1       0.4575568108E-02       4    7    1         0.2411101282E+00      0.5273640813E+00
          0                 2           2             4    7     1      -0.4450784672E-03       4    7    1        -0.2411104408E-01      0.5271629204E-01
          0                 3           1             4    7     1       0.3030818937E-04       4    7    1         0.1687773516E-02      0.3688252684E-02

    ------------------------------------------------
       NWT REQUIRED            3 OUTER ITERATIONS 
       AND A TOTAL OF          5 INNER ITERATIONS.
    ------------------------------------------------

 NO OUTPUT CONTROL FOR STRESS PERIOD   12   TIME STEP   18
 
 SOLVING FOR HEAD 
                                                   Max.-Head-Change                         Max.-Flux-Residual
  Residual-Control   Outer-Iter.   Inner-Iter.     Column Row Layer    Maximum-Head-Change  Column Row Layer    Maximum-Flux-Residual          L2-NORM 
          0                 1           2             4    7     1       0.4511904400E-02       4    7    1         0.2377423960E+00      0.5208662579E+00
          0                 2           2             4    7     1      -0.4388857119E-03       4    7    1        -0.2377427003E-01      0.5206891449E-01
          0                 3           1             4    7     1       0.2988648540E-04       4    7    1         0.1664199316E-02      0.3643095733E-02

    ------------------------------------------------
       NWT REQUIRED            3 OUTER ITERATIONS 
       AND A TOTAL OF          5 INNER ITERATIONS.
    ------------------------------------------------

 NO OUTPUT CONTROL FOR STRESS PERIOD   12   TIME STEP   19
 
 SOLVING FOR HEAD 
                                                   Max.-Head-Change                         Max.-Flux-Residual
  Residual-Control   Outer-Iter.   Inner-Iter.     Column Row Layer    Maximum-Head-Change  Column Row Layer    Maximum-Flux-Residual          L2-NORM 
          0                 1           2             4    7     1       0.4449246597E-02       4    7    1         0.2344266921E+00      0.5145677558E+00
          0                 2           2             4    7     1      -0.4327908049E-03       4    7    1        -0.2344269884E-01      0.5144131443E-01
          0                 3           1             4    7     1       0.2947144569E-04       4    7    1         0.1640989362E-02      0.3599491313E-02

    ------------------------------------------------
       NWT REQUIRED            3 OUTER ITERATIONS 
       AND A TOTAL OF          5 INNER ITERATIONS.
    ------------------------------------------------

 NO OUTPUT CONTROL FOR STRESS PERIOD   12   TIME STEP   20
 
 SOLVING FOR HEAD 
                                                   Max.-Head-Change                         Max.-Flux-Residual
  Residual-Control   Outer-Iter.   Inner-Iter.     Column Row Layer    Maximum-Head-Change  Column Row Layer    Maximum-Flux-Residual          L2-NORM 
          0                 1           2             4    7     1       0.4388105402E-02       4    7    1         0.2311927636E+00      0.5084275496E+00
          0                 2           2             4    7     1      -0.4268434215E-03       4    7    1        -0.2311930519E-01      0.5082906052E-01
          0                 3           1             4    7     1       0.2906645038E-04       4    7    1         0.1618351770E-02      0.3556846146E-02

    ------------------------------------------------
       NWT REQUIRED            3 OUTER ITERATIONS 
       AND A TOTAL OF          5 INNER ITERATIONS.
    ------------------------------------------------

 NO OUTPUT CONTROL FOR STRESS PERIOD   12   TIME STEP   21
 
 SOLVING FOR HEAD 
                                                   Max.-Head-Change                         Max.-Flux-Residual
  Residual-Control   Outer-Iter.   Inner-Iter.     Column Row Layer    Maximum-Head-Change  Column Row Layer    Maximum-Flux-Residual          L2-NORM 
          0                 1           2             4    7     1       0.4327635029E-02       4    7    1         0.2279930387E+00      0.5024486076E+00
          0                 2           2             4    7     1      -0.4209612926E-03       4    7    1        -0.2279933196E-01      0.5023294344E-01
          0                 3           1             4    7     1       0.2866589957E-04       4    7    1         0.1595953660E-02      0.3515125193E-02

    ------------------------------------------------
       NWT REQUIRED            3 OUTER ITERATIONS 
       AND A TOTAL OF          5 INNER ITERATIONS.
    ------------------------------------------------

 NO OUTPUT CONTROL FOR STRESS PERIOD   12   TIME STEP   22
 
 SOLVING FOR HEAD 
                                                   Max.-Head-Change                         Max.-Flux-Residual
  Residual-Control   Outer-Iter.   Inner-Iter.     Column Row Layer    Maximum-Head-Change  Column Row Layer    Maximum-Flux-Residual          L2-NORM 
          0                 1           2             4    7     1       0.4268646794E-02       4    7    1         0.2248725261E+00      0.4966227338E+00
          0                 2           2             4    7     1      -0.4152233348E-03       4    7    1        -0.2248727995E-01      0.4965159462E-01
          0                 3           1             4    7     1       0.2827516549E-04       4    7    1         0.1574110011E-02      0.3474597928E-02

    ------------------------------------------------
       NWT REQUIRED            3 OUTER ITERATIONS 
       AND A TOTAL OF          5 INNER ITERATIONS.
    ------------------------------------------------

 NO OUTPUT CONTROL FOR STRESS PERIOD   12   TIME STEP   23
 
 SOLVING FOR HEAD 
                                                   Max.-Head-Change                         Max.-Flux-Residual
  Residual-Control   Outer-Iter.   Inner-Iter.     Column Row Layer    Maximum-Head-Change  Column Row Layer    Maximum-Flux-Residual          L2-NORM 
          0                 1           2             4    7     1       0.4210289130E-02       4    7    1         0.2217844293E+00      0.4909280232E+00
          0                 2           2             4    7     1      -0.4095467146E-03       4    7    1        -0.2217846954E-01      0.4908337385E-01
          0                 3           1             4    7     1       0.2788860916E-04       4    7    1         0.1552493281E-02      0.3434962180E-02

    ------------------------------------------------
       NWT REQUIRED            3 OUTER ITERATIONS 
       AND A TOTAL OF          5 INNER ITERATIONS.
    ------------------------------------------------

 NO OUTPUT CONTROL FOR STRESS PERIOD   12   TIME STEP   24
 
 SOLVING FOR HEAD 
                                                   Max.-Head-Change                         Max.-Flux-Residual
  Residual-Control   Outer-Iter.   Inner-Iter.     Column Row Layer    Maximum-Head-Change  Column Row Layer    Maximum-Flux-Residual          L2-NORM 
          0                 1           2             4    7     1       0.4153373275E-02       4    7    1         0.2187734585E+00      0.4853808245E+00
          0                 2           2             4    7     1      -0.4040103438E-03       4    7    1        -0.2187737178E-01      0.4852972033E-01
          0                 3           1             4    7     1       0.2751160284E-04       4    7    1         0.1531416440E-02      0.3396307160E-02

    ------------------------------------------------
       NWT REQUIRED            3 OUTER ITERATIONS 
       AND A TOTAL OF          5 INNER ITERATIONS.
    ------------------------------------------------

 NO OUTPUT CONTROL FOR STRESS PERIOD   12   TIME STEP   25
 
 SOLVING FOR HEAD 
                                                   Max.-Head-Change                         Max.-Flux-Residual
  Residual-Control   Outer-Iter.   Inner-Iter.     Column Row Layer    Maximum-Head-Change  Column Row Layer    Maximum-Flux-Residual          L2-NORM 
          0                 1           2             4    7     1       0.4097314255E-02       4    7    1         0.2158076225E+00      0.4799521709E+00
          0                 2           2             4    7     1      -0.3985573198E-03       4    7    1        -0.2158078750E-01      0.4798783198E-01
          0                 3           1             4    7     1       0.2714027266E-04       4    7    1         0.1510655541E-02      0.3358415483E-02

    ------------------------------------------------
       NWT REQUIRED            3 OUTER ITERATIONS 
       AND A TOTAL OF          5 INNER ITERATIONS.
    ------------------------------------------------

 NO OUTPUT CONTROL FOR STRESS PERIOD   12   TIME STEP   26
 
 SOLVING FOR HEAD 
                                                   Max.-Head-Change                         Max.-Flux-Residual
  Residual-Control   Outer-Iter.   Inner-Iter.     Column Row Layer    Maximum-Head-Change  Column Row Layer    Maximum-Flux-Residual          L2-NORM 
          0                 1           2             4    7     1       0.4042103405E-02       4    7    1         0.2128862123E+00      0.4746449771E+00
          0                 2           2             4    7     1      -0.3931867995E-03       4    7    1        -0.2128864579E-01      0.4745784158E-01
          0                 3           1             4    7     1       0.2677456015E-04       4    7    1         0.1490205622E-02      0.3321434814E-02

    ------------------------------------------------
       NWT REQUIRED            3 OUTER ITERATIONS 
       AND A TOTAL OF          5 INNER ITERATIONS.
    ------------------------------------------------

 NO OUTPUT CONTROL FOR STRESS PERIOD   12   TIME STEP   27
 
 SOLVING FOR HEAD 
                                                   Max.-Head-Change                         Max.-Flux-Residual
  Residual-Control   Outer-Iter.   Inner-Iter.     Column Row Layer    Maximum-Head-Change  Column Row Layer    Maximum-Flux-Residual          L2-NORM 
          0                 1           2             4    7     1       0.3987999972E-02       4    7    1         0.2100235897E+00      0.4694562824E+00
          0                 2           2             4    7     1      -0.3884263010E-03       4    7    1        -0.2104073957E-01      0.4695542184E-01
          0                 3           1             4    7     1       0.2645038687E-04       4    7    1         0.1472852103E-02      0.3286314533E-02

    ------------------------------------------------
       NWT REQUIRED            3 OUTER ITERATIONS 
       AND A TOTAL OF          5 INNER ITERATIONS.
    ------------------------------------------------

 NO OUTPUT CONTROL FOR STRESS PERIOD   12   TIME STEP   28
 
 SOLVING FOR HEAD 
                                                   Max.-Head-Change                         Max.-Flux-Residual
  Residual-Control   Outer-Iter.   Inner-Iter.     Column Row Layer    Maximum-Head-Change  Column Row Layer    Maximum-Flux-Residual          L2-NORM 
          0                 1           2             4    7     1       0.3932738946E-02       4    7    1         0.2071915781E+00      0.4643747211E+00
          0                 2           2             4    7     1      -0.3825486978E-03       4    7    1        -0.2071918780E-01      0.4643227491E-01
          0                 3           1             4    7     1       0.2605014444E-04       4    7    1         0.1450343500E-02      0.3249744081E-02

    ------------------------------------------------
       NWT REQUIRED            3 OUTER ITERATIONS 
       AND A TOTAL OF          5 INNER ITERATIONS.
    ------------------------------------------------

 NO OUTPUT CONTROL FOR STRESS PERIOD   12   TIME STEP   29
 
 SOLVING FOR HEAD 
                                                   Max.-Head-Change                         Max.-Flux-Residual
  Residual-Control   Outer-Iter.   Inner-Iter.     Column Row Layer    Maximum-Head-Change  Column Row Layer    Maximum-Flux-Residual          L2-NORM 
          0                 1           2             4    7     1       0.3878909404E-02       4    7    1         0.2043383182E+00      0.4607506018E+00
          0                 2           2             4    7     1      -0.3773125370E-03       4    7    1        -0.2043386086E-01      0.4606382577E-01
          0                 3           1             4    7     1       0.2569358101E-04       4    7    1         0.1430370604E-02      0.3223436268E-02

    ------------------------------------------------
       NWT REQUIRED            3 OUTER ITERATIONS 
       AND A TOTAL OF          5 INNER ITERATIONS.
    ------------------------------------------------

 NO OUTPUT CONTROL FOR STRESS PERIOD   12   TIME STEP   30



 STREAM LISTING     PERIOD     12   STEP       30

 LAYER ROW COL. STREAM  RCH.  FLOW INTO     FLOW TO   FLOW OUT OF   OVRLND.     DIRECT     STREAM       STREAM     STREAM     STREAM   STREAMBED  STREAMBED
                SEG.NO.  NO.  STRM. RCH.    AQUIFER    STRM. RCH.    RUNOFF     PRECIP       ET          HEAD       DEPTH      WIDTH   CONDCTNC.   GRADIENT

   1    1    1     1     1    1.9081E+01  2.1479E-01   1.8866E+01  0.000E+00  0.000E+00  0.000E+00  1.09413E+03  1.083E+00  1.169E+01  5.260E-02  1.361E+00
   1    2    2     1     2    1.8866E+01  3.3136E-01   1.8535E+01  0.000E+00  0.000E+00  0.000E+00  1.08914E+03  1.079E+00  1.161E+01  8.124E-02  1.360E+00
   1    3    3     1     3    1.8535E+01  2.8134E-01   1.8253E+01  0.000E+00  0.000E+00  0.000E+00  1.08349E+03  1.074E+00  1.151E+01  6.906E-02  1.358E+00
   1    3    4     1     4    1.8253E+01  2.5804E-01   1.7995E+01  0.000E+00  0.000E+00  0.000E+00  1.07848E+03  1.069E+00  1.143E+01  6.342E-02  1.356E+00
   1    4    5     2     1    1.5995E+01  3.0564E-01   1.5690E+01  0.000E+00  0.000E+00  0.000E+00  1.07285E+03  9.184E-01  1.200E+01  7.800E-02  1.306E+00
   1    5    6     2     2    1.5690E+01  2.3454E-01   1.5455E+01  0.000E+00  0.000E+00  0.000E+00  1.06742E+03  9.090E-01  1.200E+01  6.000E-02  1.303E+00
   1    6    6     2     3    1.5455E+01  2.3405E-01   1.5221E+01  0.000E+00  0.000E+00  0.000E+00  1.06269E+03  9.008E-01  1.200E+01  6.000E-02  1.300E+00
   1    7    6     2     4    1.5221E+01  2.3355E-01   1.4987E+01  0.000E+00  0.000E+00  0.000E+00  1.05797E+03  8.925E-01  1.200E+01  6.000E-02  1.297E+00
   1    8    6     2     5    1.4987E+01  2.3305E-01   1.4754E+01  0.000E+00  0.000E+00  0.000E+00  1.05324E+03  8.842E-01  1.200E+01  6.000E-02  1.295E+00
   1    3    5     3     1    2.0000E+00  2.8252E-01   1.7175E+00  0.000E+00  0.000E+00  0.000E+00  1.07555E+03  1.909E+00  9.636E+00  7.227E-02  1.955E+00
   1    3    6     3     2    1.7175E+00  2.4905E-01   1.4684E+00  0.000E+00  0.000E+00  0.000E+00  1.07264E+03  1.727E+00  8.909E+00  6.682E-02  1.864E+00
   1    3    7     3     3    1.4684E+00  1.9718E-01   1.2712E+00  0.000E+00  0.000E+00  0.000E+00  1.06987E+03  1.555E+00  8.218E+00  5.547E-02  1.777E+00
   1    4    8     3     4    1.2712E+00  2.2567E-01   1.0456E+00  0.000E+00  0.000E+00  0.000E+00  1.06682E+03  1.364E+00  7.455E+00  6.709E-02  1.682E+00
   1    5    8     3     5    1.0456E+00  1.5790E-01   8.8768E-01  0.000E+00  0.000E+00  0.000E+00  1.06362E+03  1.164E+00  6.655E+00  4.991E-02  1.582E+00
   1    6    8     3     6    8.8768E-01  5.5980E-02   8.3170E-01  0.000E+00  0.000E+00  0.000E+00  1.06158E+03  1.036E+00  6.145E+00  1.844E-02  1.518E+00
   1    5   10     4     1    1.0000E+01  9.0919E-02   9.9091E+00  0.000E+00  0.000E+00  0.000E+00  1.07836E+03  6.368E-01  1.000E+01  2.500E-02  1.212E+00
   1    5    9     4     2    9.9091E+00  1.8158E-01   9.7275E+00  0.000E+00  0.000E+00  0.000E+00  1.07154E+03  6.315E-01  1.000E+01  5.000E-02  1.211E+00
   1    6    8     4     3    9.7275E+00  1.2689E-01   9.6006E+00  0.000E+00  0.000E+00  0.000E+00  1.06381E+03  6.256E-01  1.000E+01  3.500E-02  1.209E+00
   1    6    8     5     1    1.0432E+01  2.2686E-01   1.0205E+01  0.000E+00  0.000E+00  0.000E+00  1.05868E+03  6.790E-01  1.542E+01  6.166E-02  1.226E+00
   1    7    7     5     2    1.0205E+01  2.7894E-01   9.9265E+00  0.000E+00  0.000E+00  0.000E+00  1.05417E+03  6.732E-01  1.519E+01  7.594E-02  1.224E+00
   1    8    7     5     3    9.9265E+00  1.9221E-01   9.7343E+00  0.000E+00  0.000E+00  0.000E+00  1.04992E+03  6.676E-01  1.497E+01  5.241E-02  1.223E+00
   1    8    6     5     4    9.7343E+00  1.3577E-01   9.5985E+00  0.000E+00  0.000E+00  0.000E+00  1.04691E+03  6.637E-01  1.482E+01  3.706E-02  1.221E+00
   1    9    6     6     1    2.4353E+01  2.5190E-01   2.4101E+01  0.000E+00  0.000E+00  0.000E+00  1.04393E+03  1.198E+00  1.200E+01  6.000E-02  1.399E+00
   1   10    7     6     2    2.4101E+01  2.5145E-01   2.3850E+01  0.000E+00  0.000E+00  0.000E+00  1.03937E+03  1.191E+00  1.200E+01  6.000E-02  1.397E+00
   1   11    7     6     3    2.3850E+01  2.5100E-01   2.3599E+01  0.000E+00  0.000E+00  0.000E+00  1.03482E+03  1.183E+00  1.200E+01  6.000E-02  1.394E+00
   1   12    7     6     4    2.3599E+01  2.5054E-01   2.3348E+01  0.000E+00  0.000E+00  0.000E+00  1.03027E+03  1.176E+00  1.200E+01  6.000E-02  1.392E+00
   1   13    7     6     5    2.3348E+01 -1.2689E-02   2.3361E+01  0.000E+00  0.000E+00  0.000E+00  1.02708E+03  1.172E+00  1.200E+01  2.400E-01 -1.762E-02
   1   14    9     7     1    1.5000E+02  1.3361E+00   1.4866E+02  0.000E+00  0.000E+00  0.000E+00  1.03987E+03  2.288E+00  5.529E+01  5.593E-01  7.963E-01
   1   13    8     7     2    1.4866E+02  1.8215E+00   1.4684E+02  0.000E+00  0.000E+00  0.000E+00  1.03478E+03  2.279E+00  5.526E+01  6.148E-01  9.876E-01
   1   13    7     7     3    1.4684E+02  1.4274E+00   1.4542E+02  0.000E+00  0.000E+00  0.000E+00  1.02969E+03  2.271E+00  5.522E+01  5.585E-01  8.520E-01
   1   13    6     8     1    1.6878E+02  8.6492E-01   1.6791E+02  0.000E+00  0.000E+00  0.000E+00  1.02482E+03  2.941E+00  4.265E+01  4.346E-01  6.634E-01
   1   13    5     8     2    1.6791E+02  1.1795E-01   1.6779E+02  0.000E+00  0.000E+00  0.000E+00  1.01856E+03  2.938E+00  4.260E+01  4.341E-01  9.056E-02
   1   13    4     8     3    1.6779E+02 -2.6521E+00   1.7044E+02  0.000E+00  0.000E+00  0.000E+00  1.01232E+03  2.946E+00  4.272E+01  4.354E+00 -2.031E-01
   1   13    3     8     4    1.7044E+02 -3.7544E+00   1.7420E+02  0.000E+00  0.000E+00  0.000E+00  1.00609E+03  2.967E+00  4.303E+01  4.384E+00 -2.854E-01
   1   13    2     8     5    1.7420E+02 -2.6116E+00   1.7681E+02  0.000E+00  0.000E+00  0.000E+00  9.99863E+02  2.988E+00  4.332E+01  4.415E+00 -1.972E-01
   1   13    1     8     6    1.7681E+02 -1.9989E+00   1.7881E+02  0.000E+00  0.000E+00  0.000E+00  9.94877E+02  3.002E+00  4.353E+01  2.662E+00 -2.503E-01
   1    8    6     9     1    0.0000E+00  0.0000E+00   0.0000E+00  0.000E+00  0.000E+00  0.000E+00  1.07875E+03  0.000E+00  4.000E+00  0.000E+00  1.000E+00
   1    8    5     9     2    0.0000E+00  0.0000E+00   0.0000E+00  0.000E+00  0.000E+00  0.000E+00  1.07825E+03  0.000E+00  4.000E+00  0.000E+00  1.000E+00





UNSATURATED ZONE PACKAGE VOLUMETRIC BUDGET FOR  TIME STEP    30 STRESS PERIOD   12
  ------------------------------------------------------------------------------



     CUMULATIVE VOLUMES      L**3       RATES FOR THIS TIME STEP      L**3/T
     ------------------                 ------------------------

           IN:                                      IN:
           ---                                      ---
        INFILTRATION =   528327165.6062          INFILTRATION =           4.4075

          OUT:                                     OUT:
          ----                                     ----
              UZF ET =   496253282.8362                UZF ET =           0.7250
        UZF RECHARGE =       73224.0000          UZF RECHARGE =       0.0000E+00

            IN - OUT =    32000658.7700              IN - OUT =           3.6825

          STORAGE:                                 STORAGE:
          --------                                 --------
      STORAGE CHANGE =    32000649.8447        STORAGE CHANGE =           3.6825

 PERCENT DISCREPANCY IS DIFFERENCE BETWEEN IN-OUT MINUS CHANGE IN STORAGE
 DIVIDED BY THE AVERAGE OF IN AND OUT TIMES 100

 PERCENT DISCREPANCY =           0.00     PERCENT DISCREPANCY =           0.00






1
  VOLUMETRIC BUDGET FOR ENTIRE MODEL AT END OF TIME STEP   30, STRESS PERIOD  12
  ------------------------------------------------------------------------------

     CUMULATIVE VOLUMES      L**3       RATES FOR THIS TIME STEP      L**3/T
     ------------------                 ------------------------

           IN:                                      IN:
           ---                                      ---
               AG WELLS  =    44426692.0000                 AG WELLS  =           0.0000
      DIVERSION SEGMENTS =   356311200.0000        DIVERSION SEGMENTS =           0.0000
           GW IRRIGATION =           0.0000             GW IRRIGATION =           0.0000
           SW IRRIGATION =           0.0000             SW IRRIGATION =           0.0000
        SYSTEM LOSSES GW =           0.0000          SYSTEM LOSSES GW =           0.0000
        SYSTEM LOSSES SW =           0.0000          SYSTEM LOSSES SW =           0.0000

                TOTAL IN =   400737888.0000                  TOTAL IN =           0.0000

          OUT:                                     OUT:
          ----                                     ----
               AG WELLS  =           0.0000                 AG WELLS  =           0.0000
      DIVERSION SEGMENTS =           0.0000        DIVERSION SEGMENTS =           0.0000
           GW IRRIGATION =    44426692.0000             GW IRRIGATION =           0.0000
           SW IRRIGATION =   356318336.0000             SW IRRIGATION =           0.0000
        SYSTEM LOSSES GW =           0.0000          SYSTEM LOSSES GW =           0.0000
        SYSTEM LOSSES SW =           0.0000          SYSTEM LOSSES SW =           0.0000

               TOTAL OUT =   400745024.0000                 TOTAL OUT =           0.0000

                IN - OUT =       -7136.0000                  IN - OUT =           0.0000

     PERCENT DISCREPANCY =          -0.00         PERCENT DISCREPANCY =           0.00



1
  VOLUMETRIC BUDGET FOR ENTIRE MODEL AT END OF TIME STEP   30, STRESS PERIOD  12
  ------------------------------------------------------------------------------

     CUMULATIVE VOLUMES      L**3       RATES FOR THIS TIME STEP      L**3/T
     ------------------                 ------------------------

           IN:                                      IN:
           ---                                      ---
             STORAGE     =    77058984.0000               STORAGE     =           1.3006
       CONSTANT HEAD     =           0.0000         CONSTANT HEAD     =           0.0000
     HEAD DEP BOUNDS     =     8291640.0000       HEAD DEP BOUNDS     =           0.2858
      STREAM LEAKAGE     =   349378560.0000        STREAM LEAKAGE     =          11.3005
        UZF RECHARGE     =       73223.9531          UZF RECHARGE     =           0.0000
               GW ET     =           0.0000                 GW ET     =           0.0000
     SURFACE LEAKAGE     =           0.0000       SURFACE LEAKAGE     =           0.0000
           AG WELLS      =           0.0000             AG WELLS      =           0.0000

                TOTAL IN =   434802400.0000                  TOTAL IN =          12.8869

          OUT:                                     OUT:
          ----                                     ----
             STORAGE     =    66475896.0000               STORAGE     =           1.5674
       CONSTANT HEAD     =           0.0000         CONSTANT HEAD     =           0.0000
     HEAD DEP BOUNDS     =     8440184.0000       HEAD DEP BOUNDS     =           0.2899
      STREAM LEAKAGE     =   313944000.0000        STREAM LEAKAGE     =          11.0297
        UZF RECHARGE     =           0.0000          UZF RECHARGE     =           0.0000
               GW ET     =     1517575.6250                 GW ET     =           0.0000
     SURFACE LEAKAGE     =           0.0000       SURFACE LEAKAGE     =           0.0000
           AG WELLS      =    44426692.0000             AG WELLS      =           0.0000

               TOTAL OUT =   434804352.0000                 TOTAL OUT =          12.8869

                IN - OUT =       -1952.0000                  IN - OUT =      -7.2479E-05

     PERCENT DISCREPANCY =          -0.00         PERCENT DISCREPANCY =          -0.00






         TIME SUMMARY AT END OF TIME STEP   30 IN STRESS PERIOD   12
                    SECONDS     MINUTES      HOURS       DAYS        YEARS
                    -----------------------------------------------------------
   TIME STEP LENGTH  87667.      1461.1      24.352      1.0147     2.77799E-03
 STRESS PERIOD TIME 2.63000E+06  43833.      730.56      30.440     8.33397E-02
         TOTAL TIME 2.90163E+07 4.83606E+05  8060.1      335.84     0.91947    
1
1
                            STRESS PERIOD NO.   13, LENGTH =   2630000.    
                            -----------------------------------------------

                              NUMBER OF TIME STEPS =    30

                               MULTIPLIER FOR DELT =     1.000

                            INITIAL TIME STEP SIZE =   87666.66    

 REUSING NON-PARAMETER GHB CELLS FROM LAST STRESS PERIOD

      2 GHB CELLS

 REUSING STREAM SEGMENT DATA FROM LAST STRESS PERIOD



            AREAL INFILTRATION RATE
 READING ON UNIT   19 WITH FORMAT: (10F4.0)            

            1           2           3           4           5           6           7           8           9          10
 ........................................................................................................................
   1   1.2000E-09   0.000       0.000       0.000       0.000       0.000       0.000       0.000       0.000       0.000    
   2   2.1000E-09  2.0000E-09  8.0000E-10  8.5000E-09   0.000       0.000       0.000       0.000       0.000       0.000    
   3   5.0000E-10  1.1000E-09  8.8000E-09  5.5000E-09   0.000       0.000       0.000       0.000       0.000       0.000    
   4   8.5000E-09  1.1000E-09  1.1000E-09  1.1000E-09  2.0000E-09   0.000       0.000       0.000       0.000       0.000    
   5   8.5000E-09  1.1000E-09  1.1000E-09  1.1000E-09  1.1000E-09   0.000       0.000       0.000       0.000       0.000    
   6   8.5000E-09  5.2000E-09  2.1000E-09  1.1000E-09  1.5000E-09   0.000       0.000       0.000       0.000       0.000    
   7   8.5000E-09  5.2000E-09  2.1000E-09  1.2000E-09  2.0000E-09   0.000       0.000       0.000       0.000       0.000    
   8   5.0000E-10  5.2000E-09  2.1000E-09  1.2000E-09  5.0000E-09   0.000       0.000       0.000       0.000       0.000    
   9   5.0000E-10  5.2000E-09  2.1000E-09  1.2000E-09  5.0000E-09   0.000       0.000       0.000       0.000       0.000    
  10   5.0000E-10  5.2000E-09  2.1000E-09  1.2000E-09  5.8000E-09   0.000       0.000       0.000       0.000       0.000    
  11   1.0000E-10  1.1000E-09  1.1000E-09  1.2000E-09  5.0000E-09   0.000       0.000       0.000       0.000       0.000    
  12   1.1000E-09  1.1000E-09  1.1000E-09  1.1000E-09  2.0000E-09   0.000       0.000       0.000       0.000       0.000    
  13   1.1000E-09  2.2000E-09  2.2000E-09  2.1000E-09  1.0000E-09   0.000       0.000       0.000       0.000       0.000    
  14   2.0000E-10  5.5000E-09  5.5000E-09  5.2000E-09  1.0000E-09   0.000       0.000       0.000       0.000       0.000    
  15    0.000      8.8000E-09  8.8000E-09   0.000       0.000       0.000       0.000       0.000       0.000       0.000    

                  ET RATE =  5.000000E-10

 USING ET EXTINCTION DEPTH FROM PREVIOUS STRESS PERIOD. CURRENT PERIOD IS:      13

 USING EXTINCTION WATER CONTENT FROM PREVIOUS STRESS PERIOD. CURRENT PERIOD IS:      13

 USING AIR ENTRY PRESSURE FROM PREVIOUS STRESS PERIOD. CURRENT PERIOD IS:      13

 USING ROOT PRESSURE HEAD FROM PREVIOUS STRESS PERIOD. CURRENT PERIOD IS:      13

 USING ROOT ACTIVITY FROM PREVIOUS STRESS PERIOD. CURRENT PERIOD IS:      13

 PROCESSING AG STRESS PERIOD DATA

 READING AG STRESS PERIOD DATA

 READING IRRIGATION SEGMENT

 READING IRRIGATION WELL

 READING SUPPLEMENTAL WELL

 END PROCESSING AG STRESS PERIOD DATA OPTIONS
 
 SOLVING FOR HEAD 
                                                   Max.-Head-Change                         Max.-Flux-Residual
  Residual-Control   Outer-Iter.   Inner-Iter.     Column Row Layer    Maximum-Head-Change  Column Row Layer    Maximum-Flux-Residual          L2-NORM 
          0                 1           2             4    7     1       0.3826234853E-02       4    7    1         0.2015473164E+00      0.4687493945E+00
          0                 2           2             4    7     1      -0.3721887262E-03       4    7    1        -0.2015475978E-01      0.4680783468E-01
          0                 3           1             4    7     1       0.2534466852E-04       4    7    1         0.1410833527E-02      0.3270593415E-02

    ------------------------------------------------
       NWT REQUIRED            3 OUTER ITERATIONS 
       AND A TOTAL OF          5 INNER ITERATIONS.
    ------------------------------------------------

 NO OUTPUT CONTROL FOR STRESS PERIOD   13   TIME STEP    1
 
 SOLVING FOR HEAD 
                                                   Max.-Head-Change                         Max.-Flux-Residual
  Residual-Control   Outer-Iter.   Inner-Iter.     Column Row Layer    Maximum-Head-Change  Column Row Layer    Maximum-Flux-Residual          L2-NORM 
          0                 1           2             4    7     1       0.3774679803E-02       4    7    1         0.1988161992E+00      0.4623199594E+00
          0                 2           2             4    7     1      -0.3671738132E-03       4    7    1        -0.1988164719E-01      0.4617302779E-01
          0                 3           1             4    7     1       0.2500317171E-04       4    7    1         0.1391715654E-02      0.3226571588E-02

    ------------------------------------------------
       NWT REQUIRED            3 OUTER ITERATIONS 
       AND A TOTAL OF          5 INNER ITERATIONS.
    ------------------------------------------------

 NO OUTPUT CONTROL FOR STRESS PERIOD   13   TIME STEP    2
 
 SOLVING FOR HEAD 
                                                   Max.-Head-Change                         Max.-Flux-Residual
  Residual-Control   Outer-Iter.   Inner-Iter.     Column Row Layer    Maximum-Head-Change  Column Row Layer    Maximum-Flux-Residual          L2-NORM 
          0                 1           2             4    7     1       0.3723941172E-02       4    7    1         0.1961283152E+00      0.4561926323E+00
          0                 2           2             4    7     1      -0.3622383148E-03       4    7    1        -0.1961285791E-01      0.4556749200E-01
          0                 3           1             4    7     1       0.2466708288E-04       4    7    1         0.1372900398E-02      0.3184966424E-02

    ------------------------------------------------
       NWT REQUIRED            3 OUTER ITERATIONS 
       AND A TOTAL OF          5 INNER ITERATIONS.
    ------------------------------------------------

 NO OUTPUT CONTROL FOR STRESS PERIOD   13   TIME STEP    3
 
 SOLVING FOR HEAD 
                                                   Max.-Head-Change                         Max.-Flux-Residual
  Residual-Control   Outer-Iter.   Inner-Iter.     Column Row Layer    Maximum-Head-Change  Column Row Layer    Maximum-Flux-Residual          L2-NORM 
          0                 1           2             4    7     1       0.3674276693E-02       4    7    1         0.1934975731E+00      0.4503316565E+00
          0                 2           2             4    7     1      -0.3574073036E-03       4    7    1        -0.1934978290E-01      0.4498783350E-01
          0                 3           1             4    7     1       0.2433810869E-04       4    7    1         0.1354485138E-02      0.3144999537E-02

    ------------------------------------------------
       NWT REQUIRED            3 OUTER ITERATIONS 
       AND A TOTAL OF          5 INNER ITERATIONS.
    ------------------------------------------------

 NO OUTPUT CONTROL FOR STRESS PERIOD   13   TIME STEP    4
 
 SOLVING FOR HEAD 
                                                   Max.-Head-Change                         Max.-Flux-Residual
  Residual-Control   Outer-Iter.   Inner-Iter.     Column Row Layer    Maximum-Head-Change  Column Row Layer    Maximum-Flux-Residual          L2-NORM 
          0                 1           2             4    7     1       0.3625385738E-02       4    7    1         0.1909077127E+00      0.4447114881E+00
          0                 2           2             4    7     1      -0.3526515354E-03       4    7    1        -0.1909079606E-01      0.4443126941E-01
          0                 3           1             4    7     1       0.2401425895E-04       4    7    1         0.1336356075E-02      0.3106742070E-02

    ------------------------------------------------
       NWT REQUIRED            3 OUTER ITERATIONS 
       AND A TOTAL OF          5 INNER ITERATIONS.
    ------------------------------------------------

 NO OUTPUT CONTROL FOR STRESS PERIOD   13   TIME STEP    5
 
 SOLVING FOR HEAD 
                                                   Max.-Head-Change                         Max.-Flux-Residual
  Residual-Control   Outer-Iter.   Inner-Iter.     Column Row Layer    Maximum-Head-Change  Column Row Layer    Maximum-Flux-Residual          L2-NORM 
          0                 1           2             4    7     1       0.3577525690E-02       4    7    1         0.1883727704E+00      0.4393123153E+00
          0                 2           2             4    7     1      -0.3479960463E-03       4    7    1        -0.1883730106E-01      0.4389627652E-01
          0                 3           1             4    7     1       0.2369723699E-04       4    7    1         0.1318611412E-02      0.3069713208E-02

    ------------------------------------------------
       NWT REQUIRED            3 OUTER ITERATIONS 
       AND A TOTAL OF          5 INNER ITERATIONS.
    ------------------------------------------------

 NO OUTPUT CONTROL FOR STRESS PERIOD   13   TIME STEP    6
 
 SOLVING FOR HEAD 
                                                   Max.-Head-Change                         Max.-Flux-Residual
  Residual-Control   Outer-Iter.   Inner-Iter.     Column Row Layer    Maximum-Head-Change  Column Row Layer    Maximum-Flux-Residual          L2-NORM 
          0                 1           2             4    7     1       0.3530668609E-02       4    7    1         0.1858912795E+00      0.4341117505E+00
          0                 2           2             4    7     1      -0.3434381197E-03       4    7    1        -0.1858915124E-01      0.4338037732E-01
          0                 3           1             4    7     1       0.2338685964E-04       4    7    1         0.1301240937E-02      0.3033791895E-02

    ------------------------------------------------
       NWT REQUIRED            3 OUTER ITERATIONS 
       AND A TOTAL OF          5 INNER ITERATIONS.
    ------------------------------------------------

 NO OUTPUT CONTROL FOR STRESS PERIOD   13   TIME STEP    7
 
 SOLVING FOR HEAD 
                                                   Max.-Head-Change                         Max.-Flux-Residual
  Residual-Control   Outer-Iter.   Inner-Iter.     Column Row Layer    Maximum-Head-Change  Column Row Layer    Maximum-Flux-Residual          L2-NORM 
          0                 1           2             4    7     1       0.3484507338E-02       4    7    1         0.1834469790E+00      0.4290817510E+00
          0                 2           2             4    7     1      -0.3389478763E-03       4    7    1        -0.1834472048E-01      0.4288107380E-01
          0                 3           1             4    7     1       0.2308109079E-04       4    7    1         0.1284130783E-02      0.2999533750E-02

    ------------------------------------------------
       NWT REQUIRED            3 OUTER ITERATIONS 
       AND A TOTAL OF          5 INNER ITERATIONS.
    ------------------------------------------------

 NO OUTPUT CONTROL FOR STRESS PERIOD   13   TIME STEP    8
 
 SOLVING FOR HEAD 
                                                   Max.-Head-Change                         Max.-Flux-Residual
  Residual-Control   Outer-Iter.   Inner-Iter.     Column Row Layer    Maximum-Head-Change  Column Row Layer    Maximum-Flux-Residual          L2-NORM 
          0                 1           2             4    7     1       0.3439306456E-02       4    7    1         0.1810535675E+00      0.4242143373E+00
          0                 2           2             4    7     1      -0.3345510530E-03       4    7    1        -0.1810537864E-01      0.4239963538E-01
          0                 3           1             4    7     1       0.2278168372E-04       4    7    1         0.1267376861E-02      0.2967875650E-02

    ------------------------------------------------
       NWT REQUIRED            3 OUTER ITERATIONS 
       AND A TOTAL OF          5 INNER ITERATIONS.
    ------------------------------------------------

 NO OUTPUT CONTROL FOR STRESS PERIOD   13   TIME STEP    9
 
 SOLVING FOR HEAD 
                                                   Max.-Head-Change                         Max.-Flux-Residual
  Residual-Control   Outer-Iter.   Inner-Iter.     Column Row Layer    Maximum-Head-Change  Column Row Layer    Maximum-Flux-Residual          L2-NORM 
          0                 1           2             4    7     1       0.3394766631E-02       4    7    1         0.1786951387E+00      0.4194924762E+00
          0                 2           2             4    7     1      -0.3302185325E-03       4    7    1        -0.1786953510E-01      0.4192784799E-01
          0                 3           1             4    7     1       0.2248665487E-04       4    7    1         0.1250867792E-02      0.2932949423E-02

    ------------------------------------------------
       NWT REQUIRED            3 OUTER ITERATIONS 
       AND A TOTAL OF          5 INNER ITERATIONS.
    ------------------------------------------------

 NO OUTPUT CONTROL FOR STRESS PERIOD   13   TIME STEP   10
 
 SOLVING FOR HEAD 
                                                   Max.-Head-Change                         Max.-Flux-Residual
  Residual-Control   Outer-Iter.   Inner-Iter.     Column Row Layer    Maximum-Head-Change  Column Row Layer    Maximum-Flux-Residual          L2-NORM 
          0                 1           2             4    7     1       0.3351417258E-02       4    7    1         0.1764006098E+00      0.4149093272E+00
          0                 2           2             4    7     1      -0.3260018116E-03       4    7    1        -0.1764008159E-01      0.4147201791E-01
          0                 3           1             4    7     1       0.2219951173E-04       4    7    1         0.1234806040E-02      0.2901201514E-02

    ------------------------------------------------
       NWT REQUIRED            3 OUTER ITERATIONS 
       AND A TOTAL OF          5 INNER ITERATIONS.
    ------------------------------------------------

 NO OUTPUT CONTROL FOR STRESS PERIOD   13   TIME STEP   11
 
 SOLVING FOR HEAD 
                                                   Max.-Head-Change                         Max.-Flux-Residual
  Residual-Control   Outer-Iter.   Inner-Iter.     Column Row Layer    Maximum-Head-Change  Column Row Layer    Maximum-Flux-Residual          L2-NORM 
          0                 1           2             4    7     1       0.3308674973E-02       4    7    1         0.1741381793E+00      0.4104567023E+00
          0                 2           2             4    7     1      -0.3218441439E-03       4    7    1        -0.1741383792E-01      0.4102904771E-01
          0                 3           1             4    7     1       0.2191639062E-04       4    7    1         0.1218968990E-02      0.2870499506E-02

    ------------------------------------------------
       NWT REQUIRED            3 OUTER ITERATIONS 
       AND A TOTAL OF          5 INNER ITERATIONS.
    ------------------------------------------------

 NO OUTPUT CONTROL FOR STRESS PERIOD   13   TIME STEP   12
 
 SOLVING FOR HEAD 
                                                   Max.-Head-Change                         Max.-Flux-Residual
  Residual-Control   Outer-Iter.   Inner-Iter.     Column Row Layer    Maximum-Head-Change  Column Row Layer    Maximum-Flux-Residual          L2-NORM 
          0                 1           2             4    7     1       0.3266539700E-02       4    7    1         0.1719072254E+00      0.4061220424E+00
          0                 2           2             4    7     1      -0.3177455220E-03       4    7    1        -0.1719074193E-01      0.4059714017E-01
          0                 3           1             4    7     1       0.2163728917E-04       4    7    1         0.1203352267E-02      0.2840367323E-02

    ------------------------------------------------
       NWT REQUIRED            3 OUTER ITERATIONS 
       AND A TOTAL OF          5 INNER ITERATIONS.
    ------------------------------------------------

 NO OUTPUT CONTROL FOR STRESS PERIOD   13   TIME STEP   13
 
 SOLVING FOR HEAD 
                                                   Max.-Head-Change                         Max.-Flux-Residual
  Residual-Control   Outer-Iter.   Inner-Iter.     Column Row Layer    Maximum-Head-Change  Column Row Layer    Maximum-Flux-Residual          L2-NORM 
          0                 1           2             4    7     1       0.3225535313E-02       4    7    1         0.1697373701E+00      0.4019024542E+00
          0                 2           2             4    7     1      -0.3137569048E-03       4    7    1        -0.1697375582E-01      0.4017703380E-01
          0                 3           1             4    7     1       0.2136567961E-04       4    7    1         0.1188163239E-02      0.2811171586E-02

    ------------------------------------------------
       NWT REQUIRED            3 OUTER ITERATIONS 
       AND A TOTAL OF          5 INNER ITERATIONS.
    ------------------------------------------------

 NO OUTPUT CONTROL FOR STRESS PERIOD   13   TIME STEP   14
 
 SOLVING FOR HEAD 
                                                   Max.-Head-Change                         Max.-Flux-Residual
  Residual-Control   Outer-Iter.   Inner-Iter.     Column Row Layer    Maximum-Head-Change  Column Row Layer    Maximum-Flux-Residual          L2-NORM 
          0                 1           2             4    7     1       0.3185084376E-02       4    7    1         0.1675965240E+00      0.3977820271E+00
          0                 2           2             4    7     1      -0.3098221234E-03       4    7    1        -0.1675967067E-01      0.3976615921E-01
          0                 3           1             4    7     1       0.2109773517E-04       4    7    1         0.1173177268E-02      0.2782437483E-02

    ------------------------------------------------
       NWT REQUIRED            3 OUTER ITERATIONS 
       AND A TOTAL OF          5 INNER ITERATIONS.
    ------------------------------------------------

 NO OUTPUT CONTROL FOR STRESS PERIOD   13   TIME STEP   15
 
 SOLVING FOR HEAD 
                                                   Max.-Head-Change                         Max.-Flux-Residual
  Residual-Control   Outer-Iter.   Inner-Iter.     Column Row Layer    Maximum-Head-Change  Column Row Layer    Maximum-Flux-Residual          L2-NORM 
          0                 1           2             4    7     1       0.3145179669E-02       4    7    1         0.1654843735E+00      0.3937496048E+00
          0                 2           2             4    7     1      -0.3059404759E-03       4    7    1        -0.1654845508E-01      0.3936431825E-01
          0                 3           1             4    7     1       0.2083340994E-04       4    7    1         0.1158392196E-02      0.2754414675E-02

    ------------------------------------------------
       NWT REQUIRED            3 OUTER ITERATIONS 
       AND A TOTAL OF          5 INNER ITERATIONS.
    ------------------------------------------------

 NO OUTPUT CONTROL FOR STRESS PERIOD   13   TIME STEP   16
 
 SOLVING FOR HEAD 
                                                   Max.-Head-Change                         Max.-Flux-Residual
  Residual-Control   Outer-Iter.   Inner-Iter.     Column Row Layer    Maximum-Head-Change  Column Row Layer    Maximum-Flux-Residual          L2-NORM 
          0                 1           2             4    7     1       0.3106350692E-02       4    7    1         0.1634301707E+00      0.3898254659E+00
          0                 2           2             4    7     1      -0.3021634678E-03       4    7    1        -0.1634303431E-01      0.3897311111E-01
          0                 3           1             4    7     1       0.2057620928E-04       4    7    1         0.1144012715E-02      0.2727310862E-02

    ------------------------------------------------
       NWT REQUIRED            3 OUTER ITERATIONS 
       AND A TOTAL OF          5 INNER ITERATIONS.
    ------------------------------------------------

 NO OUTPUT CONTROL FOR STRESS PERIOD   13   TIME STEP   17
 
 SOLVING FOR HEAD 
                                                   Max.-Head-Change                         Max.-Flux-Residual
  Residual-Control   Outer-Iter.   Inner-Iter.     Column Row Layer    Maximum-Head-Change  Column Row Layer    Maximum-Flux-Residual          L2-NORM 
          0                 1           2             4    7     1       0.3068020862E-02       4    7    1         0.1614021167E+00      0.3859765009E+00
          0                 2           2             4    7     1      -0.2984350131E-03       4    7    1        -0.1614022839E-01      0.3858925903E-01
          0                 3           1             4    7     1       0.2032231566E-04       4    7    1         0.1129816309E-02      0.2700520947E-02

    ------------------------------------------------
       NWT REQUIRED            3 OUTER ITERATIONS 
       AND A TOTAL OF          5 INNER ITERATIONS.
    ------------------------------------------------

 NO OUTPUT CONTROL FOR STRESS PERIOD   13   TIME STEP   18
 
 SOLVING FOR HEAD 
                                                   Max.-Head-Change                         Max.-Flux-Residual
  Residual-Control   Outer-Iter.   Inner-Iter.     Column Row Layer    Maximum-Head-Change  Column Row Layer    Maximum-Flux-Residual          L2-NORM 
          0                 1           2             4    7     1       0.3030461311E-02       4    7    1         0.1594147562E+00      0.3822158252E+00
          0                 2           2             4    7     1      -0.2947814862E-03       4    7    1        -0.1594149188E-01      0.3821399391E-01
          0                 3           1             4    7     1       0.2007352401E-04       4    7    1         0.1115904754E-02      0.2674305614E-02

    ------------------------------------------------
       NWT REQUIRED            3 OUTER ITERATIONS 
       AND A TOTAL OF          5 INNER ITERATIONS.
    ------------------------------------------------

 NO OUTPUT CONTROL FOR STRESS PERIOD   13   TIME STEP   19
 
 SOLVING FOR HEAD 
                                                   Max.-Head-Change                         Max.-Flux-Residual
  Residual-Control   Outer-Iter.   Inner-Iter.     Column Row Layer    Maximum-Head-Change  Column Row Layer    Maximum-Flux-Residual          L2-NORM 
          0                 1           2             4    7     1       0.2993372916E-02       4    7    1         0.1574525204E+00      0.3785306887E+00
          0                 2           2             4    7     1      -0.2911737896E-03       4    7    1        -0.1574526781E-01      0.3784625941E-01
          0                 3           1             4    7     1       0.1982785337E-04       4    7    1         0.1102169073E-02      0.2648605909E-02

    ------------------------------------------------
       NWT REQUIRED            3 OUTER ITERATIONS 
       AND A TOTAL OF          5 INNER ITERATIONS.
    ------------------------------------------------

 NO OUTPUT CONTROL FOR STRESS PERIOD   13   TIME STEP   20
 
 SOLVING FOR HEAD 
                                                   Max.-Head-Change                         Max.-Flux-Residual
  Residual-Control   Outer-Iter.   Inner-Iter.     Column Row Layer    Maximum-Head-Change  Column Row Layer    Maximum-Flux-Residual          L2-NORM 
          0                 1           2             4    7     1       0.2957293154E-02       4    7    1         0.1555443404E+00      0.3749284584E+00
          0                 2           2             4    7     1      -0.2876642062E-03       4    7    1        -0.1555444937E-01      0.3748671144E-01
          0                 3           1             4    7     1       0.1958886401E-04       4    7    1         0.1088811774E-02      0.2623534345E-02

    ------------------------------------------------
       NWT REQUIRED            3 OUTER ITERATIONS 
       AND A TOTAL OF          5 INNER ITERATIONS.
    ------------------------------------------------

 NO OUTPUT CONTROL FOR STRESS PERIOD   13   TIME STEP   21
 
 SOLVING FOR HEAD 
                                                   Max.-Head-Change                         Max.-Flux-Residual
  Residual-Control   Outer-Iter.   Inner-Iter.     Column Row Layer    Maximum-Head-Change  Column Row Layer    Maximum-Flux-Residual          L2-NORM 
          0                 1           2             4    7     1       0.2921650576E-02       4    7    1         0.1536588297E+00      0.3713973154E+00
          0                 2           2             4    7     1      -0.2841971489E-03       4    7    1        -0.1536589786E-01      0.3713412155E-01
          0                 3           1             4    7     1       0.1935277012E-04       4    7    1         0.1075613169E-02      0.2598906770E-02

    ------------------------------------------------
       NWT REQUIRED            3 OUTER ITERATIONS 
       AND A TOTAL OF          5 INNER ITERATIONS.
    ------------------------------------------------

 NO OUTPUT CONTROL FOR STRESS PERIOD   13   TIME STEP   22
 
 SOLVING FOR HEAD 
                                                   Max.-Head-Change                         Max.-Flux-Residual
  Residual-Control   Outer-Iter.   Inner-Iter.     Column Row Layer    Maximum-Head-Change  Column Row Layer    Maximum-Flux-Residual          L2-NORM 
          0                 1           2             4    7     1       0.2886704860E-02       4    7    1         0.1518108001E+00      0.3679334942E+00
          0                 2           2             4    7     1      -0.2807978779E-03       4    7    1        -0.1518109450E-01      0.3678839318E-01
          0                 3           1             4    7     1       0.1912129277E-04       4    7    1         0.1062676949E-02      0.2574749741E-02

    ------------------------------------------------
       NWT REQUIRED            3 OUTER ITERATIONS 
       AND A TOTAL OF          5 INNER ITERATIONS.
    ------------------------------------------------

 NO OUTPUT CONTROL FOR STRESS PERIOD   13   TIME STEP   23
 
 SOLVING FOR HEAD 
                                                   Max.-Head-Change                         Max.-Flux-Residual
  Residual-Control   Outer-Iter.   Inner-Iter.     Column Row Layer    Maximum-Head-Change  Column Row Layer    Maximum-Flux-Residual          L2-NORM 
          0                 1           2             4    7     1       0.2852168948E-02       4    7    1         0.1499840881E+00      0.3645278862E+00
          0                 2           2             4    7     1      -0.2774384688E-03       4    7    1        -0.1499842287E-01      0.3644816821E-01
          0                 3           1             4    7     1       0.1889252912E-04       4    7    1         0.1049889915E-02      0.2550946475E-02

    ------------------------------------------------
       NWT REQUIRED            3 OUTER ITERATIONS 
       AND A TOTAL OF          5 INNER ITERATIONS.
    ------------------------------------------------

 NO OUTPUT CONTROL FOR STRESS PERIOD   13   TIME STEP   24
 
 SOLVING FOR HEAD 
                                                   Max.-Head-Change                         Max.-Flux-Residual
  Residual-Control   Outer-Iter.   Inner-Iter.     Column Row Layer    Maximum-Head-Change  Column Row Layer    Maximum-Flux-Residual          L2-NORM 
          0                 1           2             4    7     1       0.2818308053E-02       4    7    1         0.1481934379E+00      0.3611886833E+00
          0                 2           2             4    7     1      -0.2741447214E-03       4    7    1        -0.1481935747E-01      0.3611468769E-01
          0                 3           1             4    7     1       0.1866823741E-04       4    7    1         0.1037355331E-02      0.2527586609E-02

    ------------------------------------------------
       NWT REQUIRED            3 OUTER ITERATIONS 
       AND A TOTAL OF          5 INNER ITERATIONS.
    ------------------------------------------------

 NO OUTPUT CONTROL FOR STRESS PERIOD   13   TIME STEP   25
 
 SOLVING FOR HEAD 
                                                   Max.-Head-Change                         Max.-Flux-Residual
  Residual-Control   Outer-Iter.   Inner-Iter.     Column Row Layer    Maximum-Head-Change  Column Row Layer    Maximum-Flux-Residual          L2-NORM 
          0                 1           2             4    7     1       0.2785108758E-02       4    7    1         0.1464377864E+00      0.3579223259E+00
          0                 2           2             4    7     1      -0.2709153296E-03       4    7    1        -0.1464379193E-01      0.3578843007E-01
          0                 3           1             4    7     1       0.1844832747E-04       4    7    1         0.1025065737E-02      0.2504891512E-02

    ------------------------------------------------
       NWT REQUIRED            3 OUTER ITERATIONS 
       AND A TOTAL OF          5 INNER ITERATIONS.
    ------------------------------------------------

 NO OUTPUT CONTROL FOR STRESS PERIOD   13   TIME STEP   26
 
 SOLVING FOR HEAD 
                                                   Max.-Head-Change                         Max.-Flux-Residual
  Residual-Control   Outer-Iter.   Inner-Iter.     Column Row Layer    Maximum-Head-Change  Column Row Layer    Maximum-Flux-Residual          L2-NORM 
          0                 1           2             4    7     1       0.2752548274E-02       4    7    1         0.1447164382E+00      0.3547066345E+00
          0                 2           2             4    7     1      -0.2677480776E-03       4    7    1        -0.1447165676E-01      0.3546721737E-01
          0                 3           1             4    7     1       0.1823264996E-04       4    7    1         0.1013016291E-02      0.2482281394E-02

    ------------------------------------------------
       NWT REQUIRED            3 OUTER ITERATIONS 
       AND A TOTAL OF          5 INNER ITERATIONS.
    ------------------------------------------------

 NO OUTPUT CONTROL FOR STRESS PERIOD   13   TIME STEP   27
 
 SOLVING FOR HEAD 
                                                   Max.-Head-Change                         Max.-Flux-Residual
  Residual-Control   Outer-Iter.   Inner-Iter.     Column Row Layer    Maximum-Head-Change  Column Row Layer    Maximum-Flux-Residual          L2-NORM 
          0                 1           2             4    7     1       0.2720612050E-02       4    7    1         0.1430282116E+00      0.3515541363E+00
          0                 2           2             4    7     1      -0.2646415485E-03       4    7    1        -0.1430283375E-01      0.3515226136E-01
          0                 3           1             4    7     1       0.1802110642E-04       4    7    1         0.1001198671E-02      0.2460309815E-02

    ------------------------------------------------
       NWT REQUIRED            3 OUTER ITERATIONS 
       AND A TOTAL OF          5 INNER ITERATIONS.
    ------------------------------------------------

 NO OUTPUT CONTROL FOR STRESS PERIOD   13   TIME STEP   28
 
 SOLVING FOR HEAD 
                                                   Max.-Head-Change                         Max.-Flux-Residual
  Residual-Control   Outer-Iter.   Inner-Iter.     Column Row Layer    Maximum-Head-Change  Column Row Layer    Maximum-Flux-Residual          L2-NORM 
          0                 1           2             4    7     1       0.2689015848E-02       4    7    1         0.1413575379E+00      0.3484592792E+00
          0                 2           2             4    7     1      -0.2615680948E-03       4    7    1        -0.1413576604E-01      0.3484296568E-01
          0                 3           1             4    7     1       0.1781181624E-04       4    7    1         0.9895039443E-03      0.2438756587E-02

    ------------------------------------------------
       NWT REQUIRED            3 OUTER ITERATIONS 
       AND A TOTAL OF          5 INNER ITERATIONS.
    ------------------------------------------------

 NO OUTPUT CONTROL FOR STRESS PERIOD   13   TIME STEP   29
 
 SOLVING FOR HEAD 
                                                   Max.-Head-Change                         Max.-Flux-Residual
  Residual-Control   Outer-Iter.   Inner-Iter.     Column Row Layer    Maximum-Head-Change  Column Row Layer    Maximum-Flux-Residual          L2-NORM 
          0                 1           2             4    7     1       0.2658027400E-02       4    7    1         0.1397193082E+00      0.3454136814E+00
          0                 2           2             4    7     1      -0.2585537585E-03       4    7    1        -0.1397194271E-01      0.3453868392E-01
          0                 3           1             4    7     1       0.1760655070E-04       4    7    1         0.9780362861E-03      0.2417450981E-02

    ------------------------------------------------
       NWT REQUIRED            3 OUTER ITERATIONS 
       AND A TOTAL OF          5 INNER ITERATIONS.
    ------------------------------------------------

 NO OUTPUT CONTROL FOR STRESS PERIOD   13   TIME STEP   30



 STREAM LISTING     PERIOD     13   STEP       30

 LAYER ROW COL. STREAM  RCH.  FLOW INTO     FLOW TO   FLOW OUT OF   OVRLND.     DIRECT     STREAM       STREAM     STREAM     STREAM   STREAMBED  STREAMBED
                SEG.NO.  NO.  STRM. RCH.    AQUIFER    STRM. RCH.    RUNOFF     PRECIP       ET          HEAD       DEPTH      WIDTH   CONDCTNC.   GRADIENT

   1    1    1     1     1    1.7250E+01  2.0269E-01   1.7047E+01  0.000E+00  0.000E+00  0.000E+00  1.09410E+03  1.052E+00  1.112E+01  5.002E-02  1.351E+00
   1    2    2     1     2    1.7047E+01  3.1258E-01   1.6735E+01  0.000E+00  0.000E+00  0.000E+00  1.08911E+03  1.047E+00  1.103E+01  7.723E-02  1.349E+00
   1    3    3     1     3    1.6735E+01  2.6529E-01   1.6469E+01  0.000E+00  0.000E+00  0.000E+00  1.08346E+03  1.042E+00  1.094E+01  6.563E-02  1.347E+00
   1    3    4     1     4    1.6469E+01  2.4324E-01   1.6226E+01  0.000E+00  0.000E+00  0.000E+00  1.07845E+03  1.038E+00  1.085E+01  6.024E-02  1.346E+00
   1    4    5     2     1    1.4226E+01  3.0073E-01   1.3925E+01  0.000E+00  0.000E+00  0.000E+00  1.07279E+03  8.555E-01  1.200E+01  7.800E-02  1.285E+00
   1    5    6     2     2    1.3925E+01  2.3075E-01   1.3695E+01  0.000E+00  0.000E+00  0.000E+00  1.06736E+03  8.458E-01  1.200E+01  6.000E-02  1.282E+00
   1    6    6     2     3    1.3695E+01  2.3024E-01   1.3464E+01  0.000E+00  0.000E+00  0.000E+00  1.06263E+03  8.373E-01  1.200E+01  6.000E-02  1.279E+00
   1    7    6     2     4    1.3464E+01  2.2972E-01   1.3235E+01  0.000E+00  0.000E+00  0.000E+00  1.05790E+03  8.287E-01  1.200E+01  6.000E-02  1.276E+00
   1    8    6     2     5    1.3235E+01  2.2921E-01   1.3005E+01  0.000E+00  0.000E+00  0.000E+00  1.05318E+03  8.202E-01  1.200E+01  6.000E-02  1.273E+00
   1    3    5     3     1    2.0000E+00  2.8252E-01   1.7175E+00  0.000E+00  0.000E+00  0.000E+00  1.07555E+03  1.909E+00  9.636E+00  7.227E-02  1.955E+00
   1    3    6     3     2    1.7175E+00  2.4905E-01   1.4684E+00  0.000E+00  0.000E+00  0.000E+00  1.07264E+03  1.727E+00  8.909E+00  6.682E-02  1.864E+00
   1    3    7     3     3    1.4684E+00  1.9718E-01   1.2712E+00  0.000E+00  0.000E+00  0.000E+00  1.06987E+03  1.555E+00  8.218E+00  5.547E-02  1.777E+00
   1    4    8     3     4    1.2712E+00  2.2567E-01   1.0456E+00  0.000E+00  0.000E+00  0.000E+00  1.06682E+03  1.364E+00  7.455E+00  6.709E-02  1.682E+00
   1    5    8     3     5    1.0456E+00  1.5790E-01   8.8768E-01  0.000E+00  0.000E+00  0.000E+00  1.06362E+03  1.164E+00  6.655E+00  4.991E-02  1.582E+00
   1    6    8     3     6    8.8768E-01  5.5980E-02   8.3170E-01  0.000E+00  0.000E+00  0.000E+00  1.06158E+03  1.036E+00  6.145E+00  1.844E-02  1.518E+00
   1    5   10     4     1    1.0000E+01  9.0919E-02   9.9091E+00  0.000E+00  0.000E+00  0.000E+00  1.07836E+03  6.368E-01  1.000E+01  2.500E-02  1.212E+00
   1    5    9     4     2    9.9091E+00  1.8158E-01   9.7275E+00  0.000E+00  0.000E+00  0.000E+00  1.07154E+03  6.315E-01  1.000E+01  5.000E-02  1.211E+00
   1    6    8     4     3    9.7275E+00  1.2689E-01   9.6006E+00  0.000E+00  0.000E+00  0.000E+00  1.06381E+03  6.256E-01  1.000E+01  3.500E-02  1.209E+00
   1    6    8     5     1    1.0432E+01  2.2686E-01   1.0205E+01  0.000E+00  0.000E+00  0.000E+00  1.05868E+03  6.790E-01  1.542E+01  6.166E-02  1.226E+00
   1    7    7     5     2    1.0205E+01  2.7894E-01   9.9265E+00  0.000E+00  0.000E+00  0.000E+00  1.05417E+03  6.732E-01  1.519E+01  7.594E-02  1.224E+00
   1    8    7     5     3    9.9265E+00  1.9221E-01   9.7343E+00  0.000E+00  0.000E+00  0.000E+00  1.04992E+03  6.676E-01  1.497E+01  5.241E-02  1.223E+00
   1    8    6     5     4    9.7343E+00  1.3577E-01   9.5985E+00  0.000E+00  0.000E+00  0.000E+00  1.04691E+03  6.637E-01  1.482E+01  3.706E-02  1.221E+00
   1    9    6     6     1    2.2604E+01  2.4874E-01   2.2355E+01  0.000E+00  0.000E+00  0.000E+00  1.04387E+03  1.146E+00  1.200E+01  6.000E-02  1.382E+00
   1   10    7     6     2    2.2355E+01  2.4828E-01   2.2107E+01  0.000E+00  0.000E+00  0.000E+00  1.03932E+03  1.138E+00  1.200E+01  6.000E-02  1.379E+00
   1   11    7     6     3    2.2107E+01  2.4782E-01   2.1859E+01  0.000E+00  0.000E+00  0.000E+00  1.03477E+03  1.130E+00  1.200E+01  6.000E-02  1.377E+00
   1   12    7     6     4    2.1859E+01  2.4736E-01   2.1612E+01  0.000E+00  0.000E+00  0.000E+00  1.03021E+03  1.123E+00  1.200E+01  6.000E-02  1.374E+00
   1   13    7     6     5    2.1612E+01 -2.3849E-02   2.1636E+01  0.000E+00  0.000E+00  0.000E+00  1.02703E+03  1.119E+00  1.200E+01  2.400E-01 -3.312E-02
   1   14    9     7     1    1.5000E+02  1.3361E+00   1.4866E+02  0.000E+00  0.000E+00  0.000E+00  1.03987E+03  2.288E+00  5.529E+01  5.593E-01  7.963E-01
   1   13    8     7     2    1.4866E+02  1.8214E+00   1.4684E+02  0.000E+00  0.000E+00  0.000E+00  1.03478E+03  2.279E+00  5.526E+01  6.148E-01  9.876E-01
   1   13    7     7     3    1.4684E+02  1.4309E+00   1.4541E+02  0.000E+00  0.000E+00  0.000E+00  1.02969E+03  2.271E+00  5.522E+01  5.585E-01  8.541E-01
   1   13    6     8     1    1.6705E+02  8.6038E-01   1.6619E+02  0.000E+00  0.000E+00  0.000E+00  1.02481E+03  2.930E+00  4.249E+01  4.329E-01  6.624E-01
   1   13    5     8     2    1.6619E+02  1.1675E-01   1.6607E+02  0.000E+00  0.000E+00  0.000E+00  1.01855E+03  2.927E+00  4.244E+01  4.325E-01  8.999E-02
   1   13    4     8     3    1.6607E+02 -2.6434E+00   1.6871E+02  0.000E+00  0.000E+00  0.000E+00  1.01231E+03  2.935E+00  4.256E+01  4.337E+00 -2.032E-01
   1   13    3     8     4    1.6871E+02 -3.7437E+00   1.7246E+02  0.000E+00  0.000E+00  0.000E+00  1.00608E+03  2.956E+00  4.286E+01  4.368E+00 -2.857E-01
   1   13    2     8     5    1.7246E+02 -2.5991E+00   1.7506E+02  0.000E+00  0.000E+00  0.000E+00  9.99852E+02  2.976E+00  4.316E+01  4.398E+00 -1.970E-01
   1   13    1     8     6    1.7506E+02 -1.9898E+00   1.7705E+02  0.000E+00  0.000E+00  0.000E+00  9.94866E+02  2.991E+00  4.337E+01  2.652E+00 -2.501E-01
   1    8    6     9     1    0.0000E+00  0.0000E+00   0.0000E+00  0.000E+00  0.000E+00  0.000E+00  1.07875E+03  0.000E+00  4.000E+00  0.000E+00  1.000E+00
   1    8    5     9     2    0.0000E+00  0.0000E+00   0.0000E+00  0.000E+00  0.000E+00  0.000E+00  1.07825E+03  0.000E+00  4.000E+00  0.000E+00  1.000E+00





UNSATURATED ZONE PACKAGE VOLUMETRIC BUDGET FOR  TIME STEP    30 STRESS PERIOD   13
  ------------------------------------------------------------------------------



     CUMULATIVE VOLUMES      L**3       RATES FOR THIS TIME STEP      L**3/T
     ------------------                 ------------------------

           IN:                                      IN:
           ---                                      ---
        INFILTRATION =   539918890.1643          INFILTRATION =           4.4075

          OUT:                                     OUT:
          ----                                     ----
              UZF ET =   498160032.7021                UZF ET =           0.7250
        UZF RECHARGE =       73224.0000          UZF RECHARGE =       0.0000E+00

            IN - OUT =    41685633.4622              IN - OUT =           3.6825

          STORAGE:                                 STORAGE:
          --------                                 --------
      STORAGE CHANGE =    41685624.4710        STORAGE CHANGE =           3.6825

 PERCENT DISCREPANCY IS DIFFERENCE BETWEEN IN-OUT MINUS CHANGE IN STORAGE
 DIVIDED BY THE AVERAGE OF IN AND OUT TIMES 100

 PERCENT DISCREPANCY =           0.00     PERCENT DISCREPANCY =           0.00






1
  VOLUMETRIC BUDGET FOR ENTIRE MODEL AT END OF TIME STEP   30, STRESS PERIOD  13
  ------------------------------------------------------------------------------

     CUMULATIVE VOLUMES      L**3       RATES FOR THIS TIME STEP      L**3/T
     ------------------                 ------------------------

           IN:                                      IN:
           ---                                      ---
               AG WELLS  =    44426692.0000                 AG WELLS  =           0.0000
      DIVERSION SEGMENTS =   356311200.0000        DIVERSION SEGMENTS =           0.0000
           GW IRRIGATION =           0.0000             GW IRRIGATION =           0.0000
           SW IRRIGATION =           0.0000             SW IRRIGATION =           0.0000
        SYSTEM LOSSES GW =           0.0000          SYSTEM LOSSES GW =           0.0000
        SYSTEM LOSSES SW =           0.0000          SYSTEM LOSSES SW =           0.0000

                TOTAL IN =   400737888.0000                  TOTAL IN =           0.0000

          OUT:                                     OUT:
          ----                                     ----
               AG WELLS  =           0.0000                 AG WELLS  =           0.0000
      DIVERSION SEGMENTS =           0.0000        DIVERSION SEGMENTS =           0.0000
           GW IRRIGATION =    44426692.0000             GW IRRIGATION =           0.0000
           SW IRRIGATION =   356318336.0000             SW IRRIGATION =           0.0000
        SYSTEM LOSSES GW =           0.0000          SYSTEM LOSSES GW =           0.0000
        SYSTEM LOSSES SW =           0.0000          SYSTEM LOSSES SW =           0.0000

               TOTAL OUT =   400745024.0000                 TOTAL OUT =           0.0000

                IN - OUT =       -7136.0000                  IN - OUT =           0.0000

     PERCENT DISCREPANCY =          -0.00         PERCENT DISCREPANCY =           0.00



1
  VOLUMETRIC BUDGET FOR ENTIRE MODEL AT END OF TIME STEP   30, STRESS PERIOD  13
  ------------------------------------------------------------------------------

     CUMULATIVE VOLUMES      L**3       RATES FOR THIS TIME STEP      L**3/T
     ------------------                 ------------------------

           IN:                                      IN:
           ---                                      ---
             STORAGE     =    80319904.0000               STORAGE     =           1.0539
       CONSTANT HEAD     =           0.0000         CONSTANT HEAD     =           0.0000
     HEAD DEP BOUNDS     =     9043232.0000       HEAD DEP BOUNDS     =           0.2858
      STREAM LEAKAGE     =   378830720.0000        STREAM LEAKAGE     =          11.2037
        UZF RECHARGE     =       73223.9531          UZF RECHARGE     =           0.0000
               GW ET     =           0.0000                 GW ET     =           0.0000
     SURFACE LEAKAGE     =           0.0000       SURFACE LEAKAGE     =           0.0000
           AG WELLS      =           0.0000             AG WELLS      =           0.0000

                TOTAL IN =   468267072.0000                  TOTAL IN =          12.5434

          OUT:                                     OUT:
          ----                                     ----
             STORAGE     =    70102632.0000               STORAGE     =           1.2543
       CONSTANT HEAD     =           0.0000         CONSTANT HEAD     =           0.0000
     HEAD DEP BOUNDS     =     9201820.0000       HEAD DEP BOUNDS     =           0.2894
      STREAM LEAKAGE     =   343020480.0000        STREAM LEAKAGE     =          10.9998
        UZF RECHARGE     =           0.0000          UZF RECHARGE     =           0.0000
               GW ET     =     1517575.6250                 GW ET     =           0.0000
     SURFACE LEAKAGE     =           0.0000       SURFACE LEAKAGE     =           0.0000
           AG WELLS      =    44426692.0000             AG WELLS      =           0.0000

               TOTAL OUT =   468269184.0000                 TOTAL OUT =          12.5435

                IN - OUT =       -2112.0000                  IN - OUT =      -5.3406E-05

     PERCENT DISCREPANCY =          -0.00         PERCENT DISCREPANCY =          -0.00






         TIME SUMMARY AT END OF TIME STEP   30 IN STRESS PERIOD   13
                    SECONDS     MINUTES      HOURS       DAYS        YEARS
                    -----------------------------------------------------------
   TIME STEP LENGTH  87667.      1461.1      24.352      1.0147     2.77799E-03
 STRESS PERIOD TIME 2.63000E+06  43833.      730.56      30.440     8.33397E-02
         TOTAL TIME 3.16463E+07 5.27439E+05  8790.6      366.28      1.0028    
1
1
                            STRESS PERIOD NO.   14, LENGTH =   2630000.    
                            -----------------------------------------------

                              NUMBER OF TIME STEPS =    30

                               MULTIPLIER FOR DELT =     1.000

                            INITIAL TIME STEP SIZE =   87666.66    

 REUSING NON-PARAMETER GHB CELLS FROM LAST STRESS PERIOD

      2 GHB CELLS

 REUSING STREAM SEGMENT DATA FROM LAST STRESS PERIOD



            AREAL INFILTRATION RATE
 READING ON UNIT   19 WITH FORMAT: (10F4.0)            

            1           2           3           4           5           6           7           8           9          10
 ........................................................................................................................
   1   1.2000E-09   0.000       0.000       0.000       0.000       0.000       0.000       0.000       0.000       0.000    
   2   2.1000E-09  2.0000E-09  8.0000E-10  8.5000E-09   0.000       0.000       0.000       0.000       0.000       0.000    
   3   5.0000E-10  1.1000E-09  8.8000E-09  5.5000E-09   0.000       0.000       0.000       0.000       0.000       0.000    
   4   8.5000E-09  1.1000E-09  1.1000E-09  1.1000E-09  2.0000E-09   0.000       0.000       0.000       0.000       0.000    
   5   8.5000E-09  1.1000E-09  1.1000E-09  1.1000E-09  1.1000E-09   0.000       0.000       0.000       0.000       0.000    
   6   8.5000E-09  5.2000E-09  2.1000E-09  1.1000E-09  1.5000E-09   0.000       0.000       0.000       0.000       0.000    
   7   8.5000E-09  5.2000E-09  2.1000E-09  1.2000E-09  2.0000E-09   0.000       0.000       0.000       0.000       0.000    
   8   5.0000E-10  5.2000E-09  2.1000E-09  1.2000E-09  5.0000E-09   0.000       0.000       0.000       0.000       0.000    
   9   5.0000E-10  5.2000E-09  2.1000E-09  1.2000E-09  5.0000E-09   0.000       0.000       0.000       0.000       0.000    
  10   5.0000E-10  5.2000E-09  2.1000E-09  1.2000E-09  5.8000E-09   0.000       0.000       0.000       0.000       0.000    
  11   1.0000E-10  1.1000E-09  1.1000E-09  1.2000E-09  5.0000E-09   0.000       0.000       0.000       0.000       0.000    
  12   1.1000E-09  1.1000E-09  1.1000E-09  1.1000E-09  2.0000E-09   0.000       0.000       0.000       0.000       0.000    
  13   1.1000E-09  2.2000E-09  2.2000E-09  2.1000E-09  1.0000E-09   0.000       0.000       0.000       0.000       0.000    
  14   2.0000E-10  5.5000E-09  5.5000E-09  5.2000E-09  1.0000E-09   0.000       0.000       0.000       0.000       0.000    
  15    0.000      8.8000E-09  8.8000E-09   0.000       0.000       0.000       0.000       0.000       0.000       0.000    

                  ET RATE =  5.000000E-10

 USING ET EXTINCTION DEPTH FROM PREVIOUS STRESS PERIOD. CURRENT PERIOD IS:      14

 USING EXTINCTION WATER CONTENT FROM PREVIOUS STRESS PERIOD. CURRENT PERIOD IS:      14

 USING AIR ENTRY PRESSURE FROM PREVIOUS STRESS PERIOD. CURRENT PERIOD IS:      14

 USING ROOT PRESSURE HEAD FROM PREVIOUS STRESS PERIOD. CURRENT PERIOD IS:      14

 USING ROOT ACTIVITY FROM PREVIOUS STRESS PERIOD. CURRENT PERIOD IS:      14

 PROCESSING AG STRESS PERIOD DATA

 READING AG STRESS PERIOD DATA

 READING IRRIGATION SEGMENT

 READING IRRIGATION WELL

 READING SUPPLEMENTAL WELL

 END PROCESSING AG STRESS PERIOD DATA OPTIONS
 
 SOLVING FOR HEAD 
                                                   Max.-Head-Change                         Max.-Flux-Residual
  Residual-Control   Outer-Iter.   Inner-Iter.     Column Row Layer    Maximum-Head-Change  Column Row Layer    Maximum-Flux-Residual          L2-NORM 
          0                 1           2             4    7     1       0.2627610984E-02       4    7    1         0.1381125900E+00      0.3487270532E+00
          0                 2           2             4    7     1      -0.2555950660E-03       4    7    1        -0.1381127057E-01      0.3484456144E-01
          0                 3           1             4    7     1       0.1740507453E-04       4    7    1         0.9667892400E-03      0.2436508262E-02

    ------------------------------------------------
       NWT REQUIRED            3 OUTER ITERATIONS 
       AND A TOTAL OF          5 INNER ITERATIONS.
    ------------------------------------------------

 NO OUTPUT CONTROL FOR STRESS PERIOD   14   TIME STEP    1
 
 SOLVING FOR HEAD 
                                                   Max.-Head-Change                         Max.-Flux-Residual
  Residual-Control   Outer-Iter.   Inner-Iter.     Column Row Layer    Maximum-Head-Change  Column Row Layer    Maximum-Flux-Residual          L2-NORM 
          0                 1           2             4    7     1       0.2597469510E-02       4    7    1         0.1365207160E+00      0.3673421944E+00
          0                 2           2             4    7     1      -0.2526631186E-03       4    7    1        -0.1365208289E-01      0.3662262437E-01
          0                 3           1             4    7     1       0.1720542003E-04       4    7    1         0.9556461164E-03      0.2552944735E-02

    ------------------------------------------------
       NWT REQUIRED            3 OUTER ITERATIONS 
       AND A TOTAL OF          5 INNER ITERATIONS.
    ------------------------------------------------

 NO OUTPUT CONTROL FOR STRESS PERIOD   14   TIME STEP    2
 
 SOLVING FOR HEAD 
                                                   Max.-Head-Change                         Max.-Flux-Residual
  Residual-Control   Outer-Iter.   Inner-Iter.     Column Row Layer    Maximum-Head-Change  Column Row Layer    Maximum-Flux-Residual          L2-NORM 
          0                 1           2             4    7     1       0.2568146079E-02       4    7    1         0.1349727264E+00      0.3616578433E+00
          0                 2           2             4    7     1      -0.2498107437E-03       4    7    1        -0.1349728364E-01      0.3606741916E-01
          0                 3           1             4    7     1       0.1701118370E-04       4    7    1         0.9448101541E-03      0.2515627375E-02

    ------------------------------------------------
       NWT REQUIRED            3 OUTER ITERATIONS 
       AND A TOTAL OF          5 INNER ITERATIONS.
    ------------------------------------------------

 NO OUTPUT CONTROL FOR STRESS PERIOD   14   TIME STEP    3
 
 SOLVING FOR HEAD 
                                                   Max.-Head-Change                         Max.-Flux-Residual
  Residual-Control   Outer-Iter.   Inner-Iter.     Column Row Layer    Maximum-Head-Change  Column Row Layer    Maximum-Flux-Residual          L2-NORM 
          0                 1           2             4    7     1       0.2539072379E-02       4    7    1         0.1334375222E+00      0.3563604325E+00
          0                 2           2             4    7     1      -0.2469826611E-03       4    7    1        -0.1334376291E-01      0.3554974103E-01
          0                 3           1             4    7     1       0.1681860218E-04       4    7    1         0.9340637057E-03      0.2480660654E-02

    ------------------------------------------------
       NWT REQUIRED            3 OUTER ITERATIONS 
       AND A TOTAL OF          5 INNER ITERATIONS.
    ------------------------------------------------

 NO OUTPUT CONTROL FOR STRESS PERIOD   14   TIME STEP    4
 
 SOLVING FOR HEAD 
                                                   Max.-Head-Change                         Max.-Flux-Residual
  Residual-Control   Outer-Iter.   Inner-Iter.     Column Row Layer    Maximum-Head-Change  Column Row Layer    Maximum-Flux-Residual          L2-NORM 
          0                 1           2             4    7     1       0.2510523982E-02       4    7    1         0.1319300810E+00      0.3514111194E+00
          0                 2           2             4    7     1      -0.2442056767E-03       4    7    1        -0.1319301852E-01      0.3506534405E-01
          0                 3           1             4    7     1       0.1662949976E-04       4    7    1         0.9235115917E-03      0.2447687354E-02

    ------------------------------------------------
       NWT REQUIRED            3 OUTER ITERATIONS 
       AND A TOTAL OF          5 INNER ITERATIONS.
    ------------------------------------------------

 NO OUTPUT CONTROL FOR STRESS PERIOD   14   TIME STEP    5
 
 SOLVING FOR HEAD 
                                                   Max.-Head-Change                         Max.-Flux-Residual
  Residual-Control   Outer-Iter.   Inner-Iter.     Column Row Layer    Maximum-Head-Change  Column Row Layer    Maximum-Flux-Residual          L2-NORM 
          0                 1           2             4    7     1       0.2482209285E-02       4    7    1         0.1304350613E+00      0.3467598213E+00
          0                 2           2             4    7     1      -0.2414506715E-03       4    7    1        -0.1304351627E-01      0.3460917024E-01
          0                 3           1             4    7     1       0.1644116180E-04       4    7    1         0.9130464509E-03      0.2415619696E-02

    ------------------------------------------------
       NWT REQUIRED            3 OUTER ITERATIONS 
       AND A TOTAL OF          5 INNER ITERATIONS.
    ------------------------------------------------

 NO OUTPUT CONTROL FOR STRESS PERIOD   14   TIME STEP    6
 
 SOLVING FOR HEAD 
                                                   Max.-Head-Change                         Max.-Flux-Residual
  Residual-Control   Outer-Iter.   Inner-Iter.     Column Row Layer    Maximum-Head-Change  Column Row Layer    Maximum-Flux-Residual          L2-NORM 
          0                 1           2             4    7     1       0.2454677044E-02       4    7    1         0.1289817866E+00      0.3423819625E+00
          0                 2           2             4    7     1      -0.2387813433E-03       4    7    1        -0.1289818854E-01      0.3418787998E-01
          0                 3           1             4    7     1       0.1626012284E-04       4    7    1         0.9028734908E-03      0.2387972969E-02

    ------------------------------------------------
       NWT REQUIRED            3 OUTER ITERATIONS 
       AND A TOTAL OF          5 INNER ITERATIONS.
    ------------------------------------------------

 NO OUTPUT CONTROL FOR STRESS PERIOD   14   TIME STEP    7
 
 SOLVING FOR HEAD 
                                                   Max.-Head-Change                         Max.-Flux-Residual
  Residual-Control   Outer-Iter.   Inner-Iter.     Column Row Layer    Maximum-Head-Change  Column Row Layer    Maximum-Flux-Residual          L2-NORM 
          0                 1           2             4    7     1       0.2427328769E-02       4    7    1         0.1275390267E+00      0.3382159051E+00
          0                 2           2             4    7     1      -0.2361130394E-03       4    7    1        -0.1275391230E-01      0.3376935857E-01
          0                 3           1             4    7     1       0.1607842120E-04       4    7    1         0.8927741446E-03      0.2359030148E-02

    ------------------------------------------------
       NWT REQUIRED            3 OUTER ITERATIONS 
       AND A TOTAL OF          5 INNER ITERATIONS.
    ------------------------------------------------

 NO OUTPUT CONTROL FOR STRESS PERIOD   14   TIME STEP    8
 
 SOLVING FOR HEAD 
                                                   Max.-Head-Change                         Max.-Flux-Residual
  Residual-Control   Outer-Iter.   Inner-Iter.     Column Row Layer    Maximum-Head-Change  Column Row Layer    Maximum-Flux-Residual          L2-NORM 
          0                 1           2             4    7     1       0.2400473231E-02       4    7    1         0.1261214749E+00      0.3342643237E+00
          0                 2           2             4    7     1      -0.2335007247E-03       4    7    1        -0.1261215689E-01      0.3338032820E-01
          0                 3           1             4    7     1       0.1590053212E-04       4    7    1         0.8828512805E-03      0.2332453669E-02

    ------------------------------------------------
       NWT REQUIRED            3 OUTER ITERATIONS 
       AND A TOTAL OF          5 INNER ITERATIONS.
    ------------------------------------------------

 NO OUTPUT CONTROL FOR STRESS PERIOD   14   TIME STEP    9
 
 SOLVING FOR HEAD 
                                                   Max.-Head-Change                         Max.-Flux-Residual
  Residual-Control   Outer-Iter.   Inner-Iter.     Column Row Layer    Maximum-Head-Change  Column Row Layer    Maximum-Flux-Residual          L2-NORM 
          0                 1           2             4    7     1       0.2374088174E-02       4    7    1         0.1247290428E+00      0.3304989045E+00
          0                 2           2             4    7     1      -0.2309341746E-03       4    7    1        -0.1247291343E-01      0.3300930246E-01
          0                 3           1             4    7     1       0.1572575980E-04       4    7    1         0.8731042394E-03      0.2307036381E-02

    ------------------------------------------------
       NWT REQUIRED            3 OUTER ITERATIONS 
       AND A TOTAL OF          5 INNER ITERATIONS.
    ------------------------------------------------

 NO OUTPUT CONTROL FOR STRESS PERIOD   14   TIME STEP   10
 
 SOLVING FOR HEAD 
                                                   Max.-Head-Change                         Max.-Flux-Residual
  Residual-Control   Outer-Iter.   Inner-Iter.     Column Row Layer    Maximum-Head-Change  Column Row Layer    Maximum-Flux-Residual          L2-NORM 
          0                 1           2             4    7     1       0.2348159175E-02       4    7    1         0.1233610047E+00      0.3268932613E+00
          0                 2           2             4    7     1      -0.2284119861E-03       4    7    1        -0.1233610937E-01      0.3265307078E-01
          0                 3           1             4    7     1       0.1555400814E-04       4    7    1         0.8635279478E-03      0.2282348232E-02

    ------------------------------------------------
       NWT REQUIRED            3 OUTER ITERATIONS 
       AND A TOTAL OF          5 INNER ITERATIONS.
    ------------------------------------------------

 NO OUTPUT CONTROL FOR STRESS PERIOD   14   TIME STEP   11
 
 SOLVING FOR HEAD 
                                                   Max.-Head-Change                         Max.-Flux-Residual
  Residual-Control   Outer-Iter.   Inner-Iter.     Column Row Layer    Maximum-Head-Change  Column Row Layer    Maximum-Flux-Residual          L2-NORM 
          0                 1           2             4    7     1       0.2322408321E-02       4    7    1         0.1220017972E+00      0.3234246856E+00
          0                 2           2             4    7     1      -0.2259071272E-03       4    7    1        -0.1220018841E-01      0.3231022000E-01
          0                 3           1             4    7     1       0.1538343653E-04       4    7    1         0.8540134836E-03      0.2258734543E-02

    ------------------------------------------------
       NWT REQUIRED            3 OUTER ITERATIONS 
       AND A TOTAL OF          5 INNER ITERATIONS.
    ------------------------------------------------

 NO OUTPUT CONTROL FOR STRESS PERIOD   14   TIME STEP   12
 
 SOLVING FOR HEAD 
                                                   Max.-Head-Change                         Max.-Flux-Residual
  Residual-Control   Outer-Iter.   Inner-Iter.     Column Row Layer    Maximum-Head-Change  Column Row Layer    Maximum-Flux-Residual          L2-NORM 
          0                 1           2             4    7     1       0.2297380300E-02       4    7    1         0.1206814572E+00      0.3201044882E+00
          0                 2           2             4    7     1      -0.2234725800E-03       4    7    1        -0.1206815420E-01      0.3198180693E-01
          0                 3           1             4    7     1       0.1521765282E-04       4    7    1         0.8447710711E-03      0.2236150258E-02

    ------------------------------------------------
       NWT REQUIRED            3 OUTER ITERATIONS 
       AND A TOTAL OF          5 INNER ITERATIONS.
    ------------------------------------------------

 NO OUTPUT CONTROL FOR STRESS PERIOD   14   TIME STEP   13
 
 SOLVING FOR HEAD 
                                                   Max.-Head-Change                         Max.-Flux-Residual
  Residual-Control   Outer-Iter.   Inner-Iter.     Column Row Layer    Maximum-Head-Change  Column Row Layer    Maximum-Flux-Residual          L2-NORM 
          0                 1           2             4    7     1       0.2272503096E-02       4    7    1         0.1193689644E+00      0.3168853628E+00
          0                 2           2             4    7     1      -0.2210527033E-03       4    7    1        -0.1193690470E-01      0.3166322162E-01
          0                 3           1             4    7     1       0.1505286834E-04       4    7    1         0.8355836062E-03      0.2214150088E-02

    ------------------------------------------------
       NWT REQUIRED            3 OUTER ITERATIONS 
       AND A TOTAL OF          5 INNER ITERATIONS.
    ------------------------------------------------

 NO OUTPUT CONTROL FOR STRESS PERIOD   14   TIME STEP   14
 
 SOLVING FOR HEAD 
                                                   Max.-Head-Change                         Max.-Flux-Residual
  Residual-Control   Outer-Iter.   Inner-Iter.     Column Row Layer    Maximum-Head-Change  Column Row Layer    Maximum-Flux-Residual          L2-NORM 
          0                 1           2             4    7     1       0.2248061490E-02       4    7    1         0.1180791067E+00      0.3137824089E+00
          0                 2           2             4    7     1      -0.2186751985E-03       4    7    1        -0.1180791873E-01      0.3135558286E-01
          0                 3           1             4    7     1       0.1489096915E-04       4    7    1         0.8265545935E-03      0.2192841980E-02

    ------------------------------------------------
       NWT REQUIRED            3 OUTER ITERATIONS 
       AND A TOTAL OF          5 INNER ITERATIONS.
    ------------------------------------------------

 NO OUTPUT CONTROL FOR STRESS PERIOD   14   TIME STEP   15
 
 SOLVING FOR HEAD 
                                                   Max.-Head-Change                         Max.-Flux-Residual
  Residual-Control   Outer-Iter.   Inner-Iter.     Column Row Layer    Maximum-Head-Change  Column Row Layer    Maximum-Flux-Residual          L2-NORM 
          0                 1           2             4    7     1       0.2223770812E-02       4    7    1         0.1167970188E+00      0.3107746895E+00
          0                 2           2             4    7     1      -0.2163123749E-03       4    7    1        -0.1167970974E-01      0.3105719502E-01
          0                 3           1             4    7     1       0.1473006967E-04       4    7    1         0.8175799494E-03      0.2172098854E-02

    ------------------------------------------------
       NWT REQUIRED            3 OUTER ITERATIONS 
       AND A TOTAL OF          5 INNER ITERATIONS.
    ------------------------------------------------

 NO OUTPUT CONTROL FOR STRESS PERIOD   14   TIME STEP   16
 
 SOLVING FOR HEAD 
                                                   Max.-Head-Change                         Max.-Flux-Residual
  Residual-Control   Outer-Iter.   Inner-Iter.     Column Row Layer    Maximum-Head-Change  Column Row Layer    Maximum-Flux-Residual          L2-NORM 
          0                 1           2             4    7     1       0.2200181826E-02       4    7    1         0.1155523877E+00      0.3078694393E+00
          0                 2           2             4    7     1      -0.2140178070E-03       4    7    1        -0.1155524643E-01      0.3076868297E-01
          0                 3           1             4    7     1       0.1457381797E-04       4    7    1         0.8088675136E-03      0.2151997432E-02

    ------------------------------------------------
       NWT REQUIRED            3 OUTER ITERATIONS 
       AND A TOTAL OF          5 INNER ITERATIONS.
    ------------------------------------------------

 NO OUTPUT CONTROL FOR STRESS PERIOD   14   TIME STEP   17
 
 SOLVING FOR HEAD 
                                                   Max.-Head-Change                         Max.-Flux-Residual
  Residual-Control   Outer-Iter.   Inner-Iter.     Column Row Layer    Maximum-Head-Change  Column Row Layer    Maximum-Flux-Residual          L2-NORM 
          0                 1           2             4    7     1       0.2176723287E-02       4    7    1         0.1143145071E+00      0.3050256326E+00
          0                 2           2             4    7     1      -0.2117359281E-03       4    7    1        -0.1143145817E-01      0.3048606767E-01
          0                 3           1             4    7     1       0.1441843085E-04       4    7    1         0.8002023555E-03      0.2132798677E-02

    ------------------------------------------------
       NWT REQUIRED            3 OUTER ITERATIONS 
       AND A TOTAL OF          5 INNER ITERATIONS.
    ------------------------------------------------

 NO OUTPUT CONTROL FOR STRESS PERIOD   14   TIME STEP   18
 
 SOLVING FOR HEAD 
                                                   Max.-Head-Change                         Max.-Flux-Residual
  Residual-Control   Outer-Iter.   Inner-Iter.     Column Row Layer    Maximum-Head-Change  Column Row Layer    Maximum-Flux-Residual          L2-NORM 
          0                 1           2             4    7     1       0.2153943610E-02       4    7    1         0.1131130216E+00      0.3022736396E+00
          0                 2           2             4    7     1      -0.2095200839E-03       4    7    1        -0.1131130943E-01      0.3021282343E-01
          0                 3           1             4    7     1       0.1426754004E-04       4    7    1         0.7917919356E-03      0.2113554062E-02

    ------------------------------------------------
       NWT REQUIRED            3 OUTER ITERATIONS 
       AND A TOTAL OF          5 INNER ITERATIONS.
    ------------------------------------------------

 NO OUTPUT CONTROL FOR STRESS PERIOD   14   TIME STEP   19
 
 SOLVING FOR HEAD 
                                                   Max.-Head-Change                         Max.-Flux-Residual
  Residual-Control   Outer-Iter.   Inner-Iter.     Column Row Layer    Maximum-Head-Change  Column Row Layer    Maximum-Flux-Residual          L2-NORM 
          0                 1           2             4    7     1       0.2131272829E-02       4    7    1         0.1119171025E+00      0.2995791729E+00
          0                 2           2             4    7     1      -0.2073148328E-03       4    7    1        -0.1119171736E-01      0.2994481635E-01
          0                 3           1             4    7     1       0.1411737061E-04       4    7    1         0.7834204930E-03      0.2095124943E-02

    ------------------------------------------------
       NWT REQUIRED            3 OUTER ITERATIONS 
       AND A TOTAL OF          5 INNER ITERATIONS.
    ------------------------------------------------

 NO OUTPUT CONTROL FOR STRESS PERIOD   14   TIME STEP   20
 
 SOLVING FOR HEAD 
                                                   Max.-Head-Change                         Max.-Flux-Residual
  Residual-Control   Outer-Iter.   Inner-Iter.     Column Row Layer    Maximum-Head-Change  Column Row Layer    Maximum-Flux-Residual          L2-NORM 
          0                 1           2             4    7     1       0.2108719274E-02       4    7    1         0.1107268296E+00      0.2969527609E+00
          0                 2           2             4    7     1      -0.2051209839E-03       4    7    1        -0.1107268988E-01      0.2968331745E-01
          0                 3           1             4    7     1       0.1396797747E-04       4    7    1         0.7750885579E-03      0.2076663154E-02

    ------------------------------------------------
       NWT REQUIRED            3 OUTER ITERATIONS 
       AND A TOTAL OF          5 INNER ITERATIONS.
    ------------------------------------------------

 NO OUTPUT CONTROL FOR STRESS PERIOD   14   TIME STEP   21
 
 SOLVING FOR HEAD 
                                                   Max.-Head-Change                         Max.-Flux-Residual
  Residual-Control   Outer-Iter.   Inner-Iter.     Column Row Layer    Maximum-Head-Change  Column Row Layer    Maximum-Flux-Residual          L2-NORM 
          0                 1           2             4    7     1       0.2086832544E-02       4    7    1         0.1095722667E+00      0.2943857578E+00
          0                 2           2             4    7     1      -0.2029920000E-03       4    7    1        -0.1095723343E-01      0.2942782652E-01
          0                 3           1             4    7     1       0.1382300184E-04       4    7    1         0.7670066284E-03      0.2058754702E-02

    ------------------------------------------------
       NWT REQUIRED            3 OUTER ITERATIONS 
       AND A TOTAL OF          5 INNER ITERATIONS.
    ------------------------------------------------

 NO OUTPUT CONTROL FOR STRESS PERIOD   14   TIME STEP   22
 
 SOLVING FOR HEAD 
                                                   Max.-Head-Change                         Max.-Flux-Residual
  Residual-Control   Outer-Iter.   Inner-Iter.     Column Row Layer    Maximum-Head-Change  Column Row Layer    Maximum-Flux-Residual          L2-NORM 
          0                 1           2             4    7     1       0.2065312306E-02       4    7    1         0.1084374620E+00      0.2918711995E+00
          0                 2           2             4    7     1      -0.2008986649E-03       4    7    1        -0.1084375280E-01      0.2917742918E-01
          0                 3           1             4    7     1       0.1368045353E-04       4    7    1         0.7590629543E-03      0.2041504086E-02

    ------------------------------------------------
       NWT REQUIRED            3 OUTER ITERATIONS 
       AND A TOTAL OF          5 INNER ITERATIONS.
    ------------------------------------------------

 NO OUTPUT CONTROL FOR STRESS PERIOD   14   TIME STEP   23
 
 SOLVING FOR HEAD 
                                                   Max.-Head-Change                         Max.-Flux-Residual
  Residual-Control   Outer-Iter.   Inner-Iter.     Column Row Layer    Maximum-Head-Change  Column Row Layer    Maximum-Flux-Residual          L2-NORM 
          0                 1           2             4    7     1       0.2043883718E-02       4    7    1         0.1073068432E+00      0.2894132382E+00
          0                 2           2             4    7     1      -0.1988142451E-03       4    7    1        -0.1073069076E-01      0.2893250135E-01
          0                 3           1             4    7     1       0.1353851205E-04       4    7    1         0.7511486069E-03      0.2024431741E-02

    ------------------------------------------------
       NWT REQUIRED            3 OUTER ITERATIONS 
       AND A TOTAL OF          5 INNER ITERATIONS.
    ------------------------------------------------

 NO OUTPUT CONTROL FOR STRESS PERIOD   14   TIME STEP   24
 
 SOLVING FOR HEAD 
                                                   Max.-Head-Change                         Max.-Flux-Residual
  Residual-Control   Outer-Iter.   Inner-Iter.     Column Row Layer    Maximum-Head-Change  Column Row Layer    Maximum-Flux-Residual          L2-NORM 
          0                 1           2             4    7     1       0.2022823962E-02       4    7    1         0.1061957926E+00      0.2870131308E+00
          0                 2           2             4    7     1      -0.1967657031E-03       4    7    1        -0.1061958555E-01      0.2869327773E-01
          0                 3           1             4    7     1       0.1339901422E-04       4    7    1         0.7433712585E-03      0.2007874460E-02

    ------------------------------------------------
       NWT REQUIRED            3 OUTER ITERATIONS 
       AND A TOTAL OF          5 INNER ITERATIONS.
    ------------------------------------------------

 NO OUTPUT CONTROL FOR STRESS PERIOD   14   TIME STEP   25
 
 SOLVING FOR HEAD 
                                                   Max.-Head-Change                         Max.-Flux-Residual
  Residual-Control   Outer-Iter.   Inner-Iter.     Column Row Layer    Maximum-Head-Change  Column Row Layer    Maximum-Flux-Residual          L2-NORM 
          0                 1           2             4    7     1       0.2002119843E-02       4    7    1         0.1051038657E+00      0.2846520380E+00
          0                 2           2             4    7     1      -0.1947517547E-03       4    7    1        -0.1051039271E-01      0.2845793934E-01
          0                 3           1             4    7     1       0.1326187152E-04       4    7    1         0.7357277414E-03      0.1991383012E-02

    ------------------------------------------------
       NWT REQUIRED            3 OUTER ITERATIONS 
       AND A TOTAL OF          5 INNER ITERATIONS.
    ------------------------------------------------

 NO OUTPUT CONTROL FOR STRESS PERIOD   14   TIME STEP   26
 
 SOLVING FOR HEAD 
                                                   Max.-Head-Change                         Max.-Flux-Residual
  Residual-Control   Outer-Iter.   Inner-Iter.     Column Row Layer    Maximum-Head-Change  Column Row Layer    Maximum-Flux-Residual          L2-NORM 
          0                 1           2             4    7     1       0.1981766339E-02       4    7    1         0.1040303779E+00      0.2823421522E+00
          0                 2           2             4    7     1      -0.1927719116E-03       4    7    1        -0.1040304379E-01      0.2822753234E-01
          0                 3           1             4    7     1       0.1312705178E-04       4    7    1         0.7282133215E-03      0.1975232922E-02

    ------------------------------------------------
       NWT REQUIRED            3 OUTER ITERATIONS 
       AND A TOTAL OF          5 INNER ITERATIONS.
    ------------------------------------------------

 NO OUTPUT CONTROL FOR STRESS PERIOD   14   TIME STEP   27
 
 SOLVING FOR HEAD 
                                                   Max.-Head-Change                         Max.-Flux-Residual
  Residual-Control   Outer-Iter.   Inner-Iter.     Column Row Layer    Maximum-Head-Change  Column Row Layer    Maximum-Flux-Residual          L2-NORM 
          0                 1           2             4    7     1       0.1961752967E-02       4    7    1         0.1029750693E+00      0.2800648659E+00
          0                 2           2             4    7     1      -0.1908251542E-03       4    7    1        -0.1029751278E-01      0.2800044669E-01
          0                 3           1             4    7     1       0.1299448492E-04       4    7    1         0.7208261595E-03      0.1959503836E-02

    ------------------------------------------------
       NWT REQUIRED            3 OUTER ITERATIONS 
       AND A TOTAL OF          5 INNER ITERATIONS.
    ------------------------------------------------

 NO OUTPUT CONTROL FOR STRESS PERIOD   14   TIME STEP   28
 
 SOLVING FOR HEAD 
                                                   Max.-Head-Change                         Max.-Flux-Residual
  Residual-Control   Outer-Iter.   Inner-Iter.     Column Row Layer    Maximum-Head-Change  Column Row Layer    Maximum-Flux-Residual          L2-NORM 
          0                 1           2             4    7     1       0.1942071027E-02       4    7    1         0.1019373961E+00      0.2778353622E+00
          0                 2           2             4    7     1      -0.1889106359E-03       4    7    1        -0.1019374531E-01      0.2777793184E-01
          0                 3           1             4    7     1       0.1286411321E-04       4    7    1         0.7135624214E-03      0.1943907116E-02

    ------------------------------------------------
       NWT REQUIRED            3 OUTER ITERATIONS 
       AND A TOTAL OF          5 INNER ITERATIONS.
    ------------------------------------------------

 NO OUTPUT CONTROL FOR STRESS PERIOD   14   TIME STEP   29
 
 SOLVING FOR HEAD 
                                                   Max.-Head-Change                         Max.-Flux-Residual
  Residual-Control   Outer-Iter.   Inner-Iter.     Column Row Layer    Maximum-Head-Change  Column Row Layer    Maximum-Flux-Residual          L2-NORM 
          0                 1           2             4    7     1       0.1922444489E-02       4    7    1         0.1009020908E+00      0.2756496360E+00
          0                 2           2             4    7     1      -0.1870015067E-03       4    7    1        -0.1009021464E-01      0.2755977533E-01
          0                 3           1             4    7     1       0.1273410811E-04       4    7    1         0.7063152671E-03      0.1928717880E-02

    ------------------------------------------------
       NWT REQUIRED            3 OUTER ITERATIONS 
       AND A TOTAL OF          5 INNER ITERATIONS.
    ------------------------------------------------

 NO OUTPUT CONTROL FOR STRESS PERIOD   14   TIME STEP   30



 STREAM LISTING     PERIOD     14   STEP       30

 LAYER ROW COL. STREAM  RCH.  FLOW INTO     FLOW TO   FLOW OUT OF   OVRLND.     DIRECT     STREAM       STREAM     STREAM     STREAM   STREAMBED  STREAMBED
                SEG.NO.  NO.  STRM. RCH.    AQUIFER    STRM. RCH.    RUNOFF     PRECIP       ET          HEAD       DEPTH      WIDTH   CONDCTNC.   GRADIENT

   1    1    1     1     1    1.4250E+01  1.8169E-01   1.4069E+01  0.000E+00  0.000E+00  0.000E+00  1.09404E+03  9.953E-01  1.011E+01  4.548E-02  1.332E+00
   1    2    2     1     2    1.4069E+01  2.7999E-01   1.3789E+01  0.000E+00  0.000E+00  0.000E+00  1.08905E+03  9.906E-01  1.002E+01  7.016E-02  1.330E+00
   1    3    3     1     3    1.3789E+01  2.3745E-01   1.3551E+01  0.000E+00  0.000E+00  0.000E+00  1.08340E+03  9.853E-01  9.930E+00  5.958E-02  1.328E+00
   1    3    4     1     4    1.3551E+01  2.1755E-01   1.3334E+01  0.000E+00  0.000E+00  0.000E+00  1.07839E+03  9.805E-01  9.848E+00  5.465E-02  1.327E+00
   1    4    5     2     1    1.1334E+01  2.9214E-01   1.1041E+01  0.000E+00  0.000E+00  0.000E+00  1.07268E+03  7.454E-01  1.200E+01  7.800E-02  1.248E+00
   1    5    6     2     2    1.1041E+01  2.2410E-01   1.0817E+01  0.000E+00  0.000E+00  0.000E+00  1.06724E+03  7.350E-01  1.200E+01  6.000E-02  1.245E+00
   1    6    6     2     3    1.0817E+01  2.2356E-01   1.0594E+01  0.000E+00  0.000E+00  0.000E+00  1.06252E+03  7.260E-01  1.200E+01  6.000E-02  1.242E+00
   1    7    6     2     4    1.0594E+01  2.2301E-01   1.0371E+01  0.000E+00  0.000E+00  0.000E+00  1.05779E+03  7.168E-01  1.200E+01  6.000E-02  1.239E+00
   1    8    6     2     5    1.0371E+01  2.2246E-01   1.0148E+01  0.000E+00  0.000E+00  0.000E+00  1.05307E+03  7.077E-01  1.200E+01  6.000E-02  1.236E+00
   1    3    5     3     1    2.0000E+00  2.8252E-01   1.7175E+00  0.000E+00  0.000E+00  0.000E+00  1.07555E+03  1.909E+00  9.636E+00  7.227E-02  1.955E+00
   1    3    6     3     2    1.7175E+00  2.4905E-01   1.4684E+00  0.000E+00  0.000E+00  0.000E+00  1.07264E+03  1.727E+00  8.909E+00  6.682E-02  1.864E+00
   1    3    7     3     3    1.4684E+00  1.9718E-01   1.2712E+00  0.000E+00  0.000E+00  0.000E+00  1.06987E+03  1.555E+00  8.218E+00  5.547E-02  1.777E+00
   1    4    8     3     4    1.2712E+00  2.2567E-01   1.0456E+00  0.000E+00  0.000E+00  0.000E+00  1.06682E+03  1.364E+00  7.455E+00  6.709E-02  1.682E+00
   1    5    8     3     5    1.0456E+00  1.5790E-01   8.8768E-01  0.000E+00  0.000E+00  0.000E+00  1.06362E+03  1.164E+00  6.655E+00  4.991E-02  1.582E+00
   1    6    8     3     6    8.8768E-01  5.5980E-02   8.3170E-01  0.000E+00  0.000E+00  0.000E+00  1.06158E+03  1.036E+00  6.145E+00  1.844E-02  1.518E+00
   1    5   10     4     1    1.0000E+01  9.0919E-02   9.9091E+00  0.000E+00  0.000E+00  0.000E+00  1.07836E+03  6.368E-01  1.000E+01  2.500E-02  1.212E+00
   1    5    9     4     2    9.9091E+00  1.8158E-01   9.7275E+00  0.000E+00  0.000E+00  0.000E+00  1.07154E+03  6.315E-01  1.000E+01  5.000E-02  1.211E+00
   1    6    8     4     3    9.7275E+00  1.2689E-01   9.6006E+00  0.000E+00  0.000E+00  0.000E+00  1.06381E+03  6.256E-01  1.000E+01  3.500E-02  1.209E+00
   1    6    8     5     1    1.0432E+01  2.2686E-01   1.0205E+01  0.000E+00  0.000E+00  0.000E+00  1.05868E+03  6.790E-01  1.542E+01  6.166E-02  1.226E+00
   1    7    7     5     2    1.0205E+01  2.7894E-01   9.9265E+00  0.000E+00  0.000E+00  0.000E+00  1.05417E+03  6.732E-01  1.519E+01  7.594E-02  1.224E+00
   1    8    7     5     3    9.9265E+00  1.9221E-01   9.7343E+00  0.000E+00  0.000E+00  0.000E+00  1.04992E+03  6.676E-01  1.497E+01  5.241E-02  1.223E+00
   1    8    6     5     4    9.7343E+00  1.3577E-01   9.5985E+00  0.000E+00  0.000E+00  0.000E+00  1.04691E+03  6.637E-01  1.482E+01  3.706E-02  1.221E+00
   1    9    6     6     1    1.9747E+01  2.4336E-01   1.9503E+01  0.000E+00  0.000E+00  0.000E+00  1.04378E+03  1.056E+00  1.200E+01  6.000E-02  1.352E+00
   1   10    7     6     2    1.9503E+01  2.4289E-01   1.9261E+01  0.000E+00  0.000E+00  0.000E+00  1.03923E+03  1.048E+00  1.200E+01  6.000E-02  1.349E+00
   1   11    7     6     3    1.9261E+01  2.4241E-01   1.9018E+01  0.000E+00  0.000E+00  0.000E+00  1.03468E+03  1.040E+00  1.200E+01  6.000E-02  1.347E+00
   1   12    7     6     4    1.9018E+01  2.4194E-01   1.8776E+01  0.000E+00  0.000E+00  0.000E+00  1.03012E+03  1.032E+00  1.200E+01  6.000E-02  1.344E+00
   1   13    7     6     5    1.8776E+01 -4.2776E-02   1.8819E+01  0.000E+00  0.000E+00  0.000E+00  1.02694E+03  1.029E+00  1.200E+01  2.400E-01 -5.941E-02
   1   14    9     7     1    1.5000E+02  1.3362E+00   1.4866E+02  0.000E+00  0.000E+00  0.000E+00  1.03987E+03  2.288E+00  5.529E+01  5.593E-01  7.963E-01
   1   13    8     7     2    1.4866E+02  1.8224E+00   1.4684E+02  0.000E+00  0.000E+00  0.000E+00  1.03478E+03  2.279E+00  5.526E+01  6.148E-01  9.881E-01
   1   13    7     7     3    1.4684E+02  1.4373E+00   1.4540E+02  0.000E+00  0.000E+00  0.000E+00  1.02969E+03  2.271E+00  5.522E+01  5.585E-01  8.579E-01
   1   13    6     8     1    1.6422E+02  8.5191E-01   1.6337E+02  0.000E+00  0.000E+00  0.000E+00  1.02479E+03  2.911E+00  4.221E+01  4.302E-01  6.601E-01
   1   13    5     8     2    1.6337E+02  1.1281E-01   1.6326E+02  0.000E+00  0.000E+00  0.000E+00  1.01853E+03  2.908E+00  4.217E+01  4.297E-01  8.751E-02
   1   13    4     8     3    1.6326E+02 -2.6501E+00   1.6591E+02  0.000E+00  0.000E+00  0.000E+00  1.01229E+03  2.917E+00  4.229E+01  4.310E+00 -2.050E-01
   1   13    3     8     4    1.6591E+02 -3.7466E+00   1.6966E+02  0.000E+00  0.000E+00  0.000E+00  1.00606E+03  2.938E+00  4.260E+01  4.341E+00 -2.877E-01
   1   13    2     8     5    1.6966E+02 -2.6029E+00   1.7226E+02  0.000E+00  0.000E+00  0.000E+00  9.99833E+02  2.958E+00  4.290E+01  4.371E+00 -1.985E-01
   1   13    1     8     6    1.7226E+02 -1.9918E+00   1.7425E+02  0.000E+00  0.000E+00  0.000E+00  9.94848E+02  2.973E+00  4.311E+01  2.636E+00 -2.519E-01
   1    8    6     9     1    0.0000E+00  0.0000E+00   0.0000E+00  0.000E+00  0.000E+00  0.000E+00  1.07875E+03  0.000E+00  4.000E+00  0.000E+00  1.000E+00
   1    8    5     9     2    0.0000E+00  0.0000E+00   0.0000E+00  0.000E+00  0.000E+00  0.000E+00  1.07825E+03  0.000E+00  4.000E+00  0.000E+00  1.000E+00





UNSATURATED ZONE PACKAGE VOLUMETRIC BUDGET FOR  TIME STEP    30 STRESS PERIOD   14
  ------------------------------------------------------------------------------



     CUMULATIVE VOLUMES      L**3       RATES FOR THIS TIME STEP      L**3/T
     ------------------                 ------------------------

           IN:                                      IN:
           ---                                      ---
        INFILTRATION =   551510614.7224          INFILTRATION =           4.4075

          OUT:                                     OUT:
          ----                                     ----
              UZF ET =   500066788.0839                UZF ET =           0.7250
        UZF RECHARGE =       73224.0000          UZF RECHARGE =       0.0000E+00

            IN - OUT =    51370602.6385              IN - OUT =           3.6825

          STORAGE:                                 STORAGE:
          --------                                 --------
      STORAGE CHANGE =    51370593.5820        STORAGE CHANGE =           3.6825

 PERCENT DISCREPANCY IS DIFFERENCE BETWEEN IN-OUT MINUS CHANGE IN STORAGE
 DIVIDED BY THE AVERAGE OF IN AND OUT TIMES 100

 PERCENT DISCREPANCY =           0.00     PERCENT DISCREPANCY =           0.00






1
  VOLUMETRIC BUDGET FOR ENTIRE MODEL AT END OF TIME STEP   30, STRESS PERIOD  14
  ------------------------------------------------------------------------------

     CUMULATIVE VOLUMES      L**3       RATES FOR THIS TIME STEP      L**3/T
     ------------------                 ------------------------

           IN:                                      IN:
           ---                                      ---
               AG WELLS  =    44426692.0000                 AG WELLS  =           0.0000
      DIVERSION SEGMENTS =   356311200.0000        DIVERSION SEGMENTS =           0.0000
           GW IRRIGATION =           0.0000             GW IRRIGATION =           0.0000
           SW IRRIGATION =           0.0000             SW IRRIGATION =           0.0000
        SYSTEM LOSSES GW =           0.0000          SYSTEM LOSSES GW =           0.0000
        SYSTEM LOSSES SW =           0.0000          SYSTEM LOSSES SW =           0.0000

                TOTAL IN =   400737888.0000                  TOTAL IN =           0.0000

          OUT:                                     OUT:
          ----                                     ----
               AG WELLS  =           0.0000                 AG WELLS  =           0.0000
      DIVERSION SEGMENTS =           0.0000        DIVERSION SEGMENTS =           0.0000
           GW IRRIGATION =    44426692.0000             GW IRRIGATION =           0.0000
           SW IRRIGATION =   356318336.0000             SW IRRIGATION =           0.0000
        SYSTEM LOSSES GW =           0.0000          SYSTEM LOSSES GW =           0.0000
        SYSTEM LOSSES SW =           0.0000          SYSTEM LOSSES SW =           0.0000

               TOTAL OUT =   400745024.0000                 TOTAL OUT =           0.0000

                IN - OUT =       -7136.0000                  IN - OUT =           0.0000

     PERCENT DISCREPANCY =          -0.00         PERCENT DISCREPANCY =           0.00



1
  VOLUMETRIC BUDGET FOR ENTIRE MODEL AT END OF TIME STEP   30, STRESS PERIOD  14
  ------------------------------------------------------------------------------

     CUMULATIVE VOLUMES      L**3       RATES FOR THIS TIME STEP      L**3/T
     ------------------                 ------------------------

           IN:                                      IN:
           ---                                      ---
             STORAGE     =    83380528.0000               STORAGE     =           1.0048
       CONSTANT HEAD     =           0.0000         CONSTANT HEAD     =           0.0000
     HEAD DEP BOUNDS     =     9794834.0000       HEAD DEP BOUNDS     =           0.2858
      STREAM LEAKAGE     =   407841088.0000        STREAM LEAKAGE     =          11.0345
        UZF RECHARGE     =       73223.9531          UZF RECHARGE     =           0.0000
               GW ET     =           0.0000                 GW ET     =           0.0000
     SURFACE LEAKAGE     =           0.0000       SURFACE LEAKAGE     =           0.0000
           AG WELLS      =           0.0000             AG WELLS      =           0.0000

                TOTAL IN =   501089664.0000                  TOTAL IN =          12.3251

          OUT:                                     OUT:
          ----                                     ----
             STORAGE     =    72981200.0000               STORAGE     =           1.0019
       CONSTANT HEAD     =           0.0000         CONSTANT HEAD     =           0.0000
     HEAD DEP BOUNDS     =     9962244.0000       HEAD DEP BOUNDS     =           0.2889
      STREAM LEAKAGE     =   372203968.0000        STREAM LEAKAGE     =          11.0342
        UZF RECHARGE     =           0.0000          UZF RECHARGE     =           0.0000
               GW ET     =     1517575.6250                 GW ET     =           0.0000
     SURFACE LEAKAGE     =           0.0000       SURFACE LEAKAGE     =           0.0000
           AG WELLS      =    44426692.0000             AG WELLS      =           0.0000

               TOTAL OUT =   501091648.0000                 TOTAL OUT =          12.3251

                IN - OUT =       -1984.0000                  IN - OUT =       4.7684E-06

     PERCENT DISCREPANCY =          -0.00         PERCENT DISCREPANCY =           0.00






         TIME SUMMARY AT END OF TIME STEP   30 IN STRESS PERIOD   14
                    SECONDS     MINUTES      HOURS       DAYS        YEARS
                    -----------------------------------------------------------
   TIME STEP LENGTH  87667.      1461.1      24.352      1.0147     2.77799E-03
 STRESS PERIOD TIME 2.63000E+06  43833.      730.56      30.440     8.33397E-02
         TOTAL TIME 3.42763E+07 5.71272E+05  9521.2      396.72      1.0862    
1
1
                            STRESS PERIOD NO.   15, LENGTH =   2630000.    
                            -----------------------------------------------

                              NUMBER OF TIME STEPS =    30

                               MULTIPLIER FOR DELT =     1.000

                            INITIAL TIME STEP SIZE =   87666.66    

 REUSING NON-PARAMETER GHB CELLS FROM LAST STRESS PERIOD

      2 GHB CELLS

 REUSING STREAM SEGMENT DATA FROM LAST STRESS PERIOD



            AREAL INFILTRATION RATE
 READING ON UNIT   19 WITH FORMAT: (10F4.0)            

            1           2           3           4           5           6           7           8           9          10
 ........................................................................................................................
   1   1.2000E-09   0.000       0.000       0.000       0.000       0.000       0.000       0.000       0.000       0.000    
   2   2.1000E-09  2.0000E-09  8.0000E-10  8.5000E-09   0.000       0.000       0.000       0.000       0.000       0.000    
   3   5.0000E-10  1.1000E-09  8.8000E-09  5.5000E-09   0.000       0.000       0.000       0.000       0.000       0.000    
   4   8.5000E-09  1.1000E-09  1.1000E-09  1.1000E-09  2.0000E-09   0.000       0.000       0.000       0.000       0.000    
   5   8.5000E-09  1.1000E-09  1.1000E-09  1.1000E-09  1.1000E-09   0.000       0.000       0.000       0.000       0.000    
   6   8.5000E-09  5.2000E-09  2.1000E-09  1.1000E-09  1.5000E-09   0.000       0.000       0.000       0.000       0.000    
   7   8.5000E-09  5.2000E-09  2.1000E-09  1.2000E-09  2.0000E-09   0.000       0.000       0.000       0.000       0.000    
   8   5.0000E-10  5.2000E-09  2.1000E-09  1.2000E-09  5.0000E-09   0.000       0.000       0.000       0.000       0.000    
   9   5.0000E-10  5.2000E-09  2.1000E-09  1.2000E-09  5.0000E-09   0.000       0.000       0.000       0.000       0.000    
  10   5.0000E-10  5.2000E-09  2.1000E-09  1.2000E-09  5.8000E-09   0.000       0.000       0.000       0.000       0.000    
  11   1.0000E-10  1.1000E-09  1.1000E-09  1.2000E-09  5.0000E-09   0.000       0.000       0.000       0.000       0.000    
  12   1.1000E-09  1.1000E-09  1.1000E-09  1.1000E-09  2.0000E-09   0.000       0.000       0.000       0.000       0.000    
  13   1.1000E-09  2.2000E-09  2.2000E-09  2.1000E-09  1.0000E-09   0.000       0.000       0.000       0.000       0.000    
  14   2.0000E-10  5.5000E-09  5.5000E-09  5.2000E-09  1.0000E-09   0.000       0.000       0.000       0.000       0.000    
  15    0.000      8.8000E-09  8.8000E-09   0.000       0.000       0.000       0.000       0.000       0.000       0.000    

                  ET RATE =  5.000000E-10

 USING ET EXTINCTION DEPTH FROM PREVIOUS STRESS PERIOD. CURRENT PERIOD IS:      15

 USING EXTINCTION WATER CONTENT FROM PREVIOUS STRESS PERIOD. CURRENT PERIOD IS:      15

 USING AIR ENTRY PRESSURE FROM PREVIOUS STRESS PERIOD. CURRENT PERIOD IS:      15

 USING ROOT PRESSURE HEAD FROM PREVIOUS STRESS PERIOD. CURRENT PERIOD IS:      15

 USING ROOT ACTIVITY FROM PREVIOUS STRESS PERIOD. CURRENT PERIOD IS:      15

 PROCESSING AG STRESS PERIOD DATA

 READING AG STRESS PERIOD DATA

 READING IRRIGATION SEGMENT

 READING IRRIGATION WELL

 READING SUPPLEMENTAL WELL

 END PROCESSING AG STRESS PERIOD DATA OPTIONS
 
 SOLVING FOR HEAD 
                                                   Max.-Head-Change                         Max.-Flux-Residual
  Residual-Control   Outer-Iter.   Inner-Iter.     Column Row Layer    Maximum-Head-Change  Column Row Layer    Maximum-Flux-Residual          L2-NORM 
          0                 1           2             4    7     1       0.1903148931E-02       4    7    1         0.9988447460E-01      0.2734916059E+00
          0                 2           2             4    7     1      -0.1851245738E-03       4    7    1        -0.9988452904E-02      0.2734449606E-01
          0                 3           1             4    7     1       0.1260629674E-04       4    7    1         0.6991919677E-03      0.1913646384E-02

    ------------------------------------------------
       NWT REQUIRED            3 OUTER ITERATIONS 
       AND A TOTAL OF          5 INNER ITERATIONS.
    ------------------------------------------------

 NO OUTPUT CONTROL FOR STRESS PERIOD   15   TIME STEP    1
 
 SOLVING FOR HEAD 
                                                   Max.-Head-Change                         Max.-Flux-Residual
  Residual-Control   Outer-Iter.   Inner-Iter.     Column Row Layer    Maximum-Head-Change  Column Row Layer    Maximum-Flux-Residual          L2-NORM 
          0                 1           2             4    7     1       0.1884454930E-02       4    7    1         0.9889883596E-01      0.2691242076E+00
          0                 2           2             4    7     1      -0.1833061555E-03       4    7    1        -0.9889888916E-02      0.2691103909E-01
          0                 3           1             4    7     1       0.1248246928E-04       4    7    1         0.6922924849E-03      0.1883607874E-02

    ------------------------------------------------
       NWT REQUIRED            3 OUTER ITERATIONS 
       AND A TOTAL OF          5 INNER ITERATIONS.
    ------------------------------------------------

 NO OUTPUT CONTROL FOR STRESS PERIOD   15   TIME STEP    2
 
 SOLVING FOR HEAD 
                                                   Max.-Head-Change                         Max.-Flux-Residual
  Residual-Control   Outer-Iter.   Inner-Iter.     Column Row Layer    Maximum-Head-Change  Column Row Layer    Maximum-Flux-Residual          L2-NORM 
          0                 1           2             4    7     1       0.1865807808E-02       4    7    1         0.9791475409E-01      0.2684043853E+00
          0                 2           2             4    7     1      -0.1814922971E-03       4    7    1        -0.9791480609E-02      0.2682958551E-01
          0                 3           1             4    7     1       0.1235895210E-04       4    7    1         0.6854038993E-03      0.1877033763E-02

    ------------------------------------------------
       NWT REQUIRED            3 OUTER ITERATIONS 
       AND A TOTAL OF          5 INNER ITERATIONS.
    ------------------------------------------------

 NO OUTPUT CONTROL FOR STRESS PERIOD   15   TIME STEP    3
 
 SOLVING FOR HEAD 
                                                   Max.-Head-Change                         Max.-Flux-Residual
  Residual-Control   Outer-Iter.   Inner-Iter.     Column Row Layer    Maximum-Head-Change  Column Row Layer    Maximum-Flux-Residual          L2-NORM 
          0                 1           2             4    7     1       0.1847490628E-02       4    7    1         0.9694791976E-01      0.2661013565E+00
          0                 2           2             4    7     1      -0.1797105333E-03       4    7    1        -0.9694797063E-02      0.2660082590E-01
          0                 3           1             4    7     1       0.1223762037E-04       4    7    1         0.6786360436E-03      0.1860492907E-02

    ------------------------------------------------
       NWT REQUIRED            3 OUTER ITERATIONS 
       AND A TOTAL OF          5 INNER ITERATIONS.
    ------------------------------------------------

 NO OUTPUT CONTROL FOR STRESS PERIOD   15   TIME STEP    4
 
 SOLVING FOR HEAD 
                                                   Max.-Head-Change                         Max.-Flux-Residual
  Residual-Control   Outer-Iter.   Inner-Iter.     Column Row Layer    Maximum-Head-Change  Column Row Layer    Maximum-Flux-Residual          L2-NORM 
          0                 1           2             4    7     1       0.1829209682E-02       4    7    1         0.9598337583E-01      0.2638753654E+00
          0                 2           2             4    7     1      -0.1779322936E-03       4    7    1        -0.9598342529E-02      0.2638014253E-01
          0                 3           1             4    7     1       0.1211652885E-04       4    7    1         0.6718842274E-03      0.1845893079E-02

    ------------------------------------------------
       NWT REQUIRED            3 OUTER ITERATIONS 
       AND A TOTAL OF          5 INNER ITERATIONS.
    ------------------------------------------------

 NO OUTPUT CONTROL FOR STRESS PERIOD   15   TIME STEP    5
 
 SOLVING FOR HEAD 
                                                   Max.-Head-Change                         Max.-Flux-Residual
  Residual-Control   Outer-Iter.   Inner-Iter.     Column Row Layer    Maximum-Head-Change  Column Row Layer    Maximum-Flux-Residual          L2-NORM 
          0                 1           2             4    7     1       0.1811524532E-02       4    7    1         0.9505034410E-01      0.2617521160E+00
          0                 2           2             4    7     1      -0.1762120094E-03       4    7    1        -0.9505039260E-02      0.2616900748E-01
          0                 3           1             4    7     1       0.1199938387E-04       4    7    1         0.6653529949E-03      0.1831238421E-02

    ------------------------------------------------
       NWT REQUIRED            3 OUTER ITERATIONS 
       AND A TOTAL OF          5 INNER ITERATIONS.
    ------------------------------------------------

 NO OUTPUT CONTROL FOR STRESS PERIOD   15   TIME STEP    6
 
 SOLVING FOR HEAD 
                                                   Max.-Head-Change                         Max.-Flux-Residual
  Residual-Control   Outer-Iter.   Inner-Iter.     Column Row Layer    Maximum-Head-Change  Column Row Layer    Maximum-Flux-Residual          L2-NORM 
          0                 1           2             4    7     1       0.1793861512E-02       4    7    1         0.9411857002E-01      0.2597000334E+00
          0                 2           2             4    7     1      -0.1744938771E-03       4    7    1        -0.9411861723E-02      0.2596490674E-01
          0                 3           1             4    7     1       0.1188238538E-04       4    7    1         0.6588305478E-03      0.1816968850E-02

    ------------------------------------------------
       NWT REQUIRED            3 OUTER ITERATIONS 
       AND A TOTAL OF          5 INNER ITERATIONS.
    ------------------------------------------------

 NO OUTPUT CONTROL FOR STRESS PERIOD   15   TIME STEP    7
 
 SOLVING FOR HEAD 
                                                   Max.-Head-Change                         Max.-Flux-Residual
  Residual-Control   Outer-Iter.   Inner-Iter.     Column Row Layer    Maximum-Head-Change  Column Row Layer    Maximum-Flux-Residual          L2-NORM 
          0                 1           2             4    7     1       0.1776773381E-02       4    7    1         0.9321757728E-01      0.2577174980E+00
          0                 2           2             4    7     1      -0.1728316661E-03       4    7    1        -0.9321762331E-02      0.2576752623E-01
          0                 3           1             4    7     1       0.1176919497E-04       4    7    1         0.6525235885E-03      0.1803319264E-02

    ------------------------------------------------
       NWT REQUIRED            3 OUTER ITERATIONS 
       AND A TOTAL OF          5 INNER ITERATIONS.
    ------------------------------------------------

 NO OUTPUT CONTROL FOR STRESS PERIOD   15   TIME STEP    8
 
 SOLVING FOR HEAD 
                                                   Max.-Head-Change                         Max.-Flux-Residual
  Residual-Control   Outer-Iter.   Inner-Iter.     Column Row Layer    Maximum-Head-Change  Column Row Layer    Maximum-Flux-Residual          L2-NORM 
          0                 1           2             4    7     1       0.1759690080E-02       4    7    1         0.9231675777E-01      0.2557906928E+00
          0                 2           2             4    7     1      -0.1711699255E-03       4    7    1        -0.9231680291E-02      0.2557577322E-01
          0                 3           1             4    7     1       0.1165603675E-04       4    7    1         0.6462178571E-03      0.1789957837E-02

    ------------------------------------------------
       NWT REQUIRED            3 OUTER ITERATIONS 
       AND A TOTAL OF          5 INNER ITERATIONS.
    ------------------------------------------------

 NO OUTPUT CONTROL FOR STRESS PERIOD   15   TIME STEP    9
 
 SOLVING FOR HEAD 
                                                   Max.-Head-Change                         Max.-Flux-Residual
  Residual-Control   Outer-Iter.   Inner-Iter.     Column Row Layer    Maximum-Head-Change  Column Row Layer    Maximum-Flux-Residual          L2-NORM 
          0                 1           2             4    7     1       0.1742898452E-02       4    7    1         0.9143100572E-01      0.2539237895E+00
          0                 2           2             4    7     1      -0.1695365568E-03       4    7    1        -0.9143104985E-02      0.2538977055E-01
          0                 3           1             4    7     1       0.1154481049E-04       4    7    1         0.6400175921E-03      0.1777105834E-02

    ------------------------------------------------
       NWT REQUIRED            3 OUTER ITERATIONS 
       AND A TOTAL OF          5 INNER ITERATIONS.
    ------------------------------------------------

 NO OUTPUT CONTROL FOR STRESS PERIOD   15   TIME STEP   10
 
 SOLVING FOR HEAD 
                                                   Max.-Head-Change                         Max.-Flux-Residual
  Residual-Control   Outer-Iter.   Inner-Iter.     Column Row Layer    Maximum-Head-Change  Column Row Layer    Maximum-Flux-Residual          L2-NORM 
          0                 1           2             4    7     1       0.1726384914E-02       4    7    1         0.9056037672E-01      0.2521019386E+00
          0                 2           2             4    7     1      -0.1679302381E-03       4    7    1        -0.9056041981E-02      0.2520800762E-01
          0                 3           1             4    7     1       0.1143542602E-04       4    7    1         0.6339231713E-03      0.1764360538E-02

    ------------------------------------------------
       NWT REQUIRED            3 OUTER ITERATIONS 
       AND A TOTAL OF          5 INNER ITERATIONS.
    ------------------------------------------------

 NO OUTPUT CONTROL FOR STRESS PERIOD   15   TIME STEP   11
 
 SOLVING FOR HEAD 
                                                   Max.-Head-Change                         Max.-Flux-Residual
  Residual-Control   Outer-Iter.   Inner-Iter.     Column Row Layer    Maximum-Head-Change  Column Row Layer    Maximum-Flux-Residual          L2-NORM 
          0                 1           2             4    7     1       0.1710150775E-02       4    7    1         0.8970416629E-01      0.2503309639E+00
          0                 2           2             4    7     1      -0.1663510977E-03       4    7    1        -0.8970420847E-02      0.2503137277E-01
          0                 3           1             4    7     1       0.1132789257E-04       4    7    1         0.6279296872E-03      0.1752034033E-02

    ------------------------------------------------
       NWT REQUIRED            3 OUTER ITERATIONS 
       AND A TOTAL OF          5 INNER ITERATIONS.
    ------------------------------------------------

 NO OUTPUT CONTROL FOR STRESS PERIOD   15   TIME STEP   12
 
 SOLVING FOR HEAD 
                                                   Max.-Head-Change                         Max.-Flux-Residual
  Residual-Control   Outer-Iter.   Inner-Iter.     Column Row Layer    Maximum-Head-Change  Column Row Layer    Maximum-Flux-Residual          L2-NORM 
          0                 1           2             4    7     1       0.1694178970E-02       4    7    1         0.8886244247E-01      0.2485977674E+00
          0                 2           2             4    7     1      -0.1647974753E-03       4    7    1        -0.8886248367E-02      0.2485834943E-01
          0                 3           1             4    7     1       0.1122209678E-04       4    7    1         0.6220376135E-03      0.1739947406E-02

    ------------------------------------------------
       NWT REQUIRED            3 OUTER ITERATIONS 
       AND A TOTAL OF          5 INNER ITERATIONS.
    ------------------------------------------------

 NO OUTPUT CONTROL FOR STRESS PERIOD   15   TIME STEP   13
 
 SOLVING FOR HEAD 
                                                   Max.-Head-Change                         Max.-Flux-Residual
  Residual-Control   Outer-Iter.   Inner-Iter.     Column Row Layer    Maximum-Head-Change  Column Row Layer    Maximum-Flux-Residual          L2-NORM 
          0                 1           2             4    7     1       0.1678203789E-02       4    7    1         0.8801950297E-01      0.2468985061E+00
          0                 2           2             4    7     1      -0.1632435243E-03       4    7    1        -0.8801954318E-02      0.2468871014E-01
          0                 3           1             4    7     1       0.1111627850E-04       4    7    1         0.6161370256E-03      0.1728062863E-02

    ------------------------------------------------
       NWT REQUIRED            3 OUTER ITERATIONS 
       AND A TOTAL OF          5 INNER ITERATIONS.
    ------------------------------------------------

 NO OUTPUT CONTROL FOR STRESS PERIOD   15   TIME STEP   14
 
 SOLVING FOR HEAD 
                                                   Max.-Head-Change                         Max.-Flux-Residual
  Residual-Control   Outer-Iter.   Inner-Iter.     Column Row Layer    Maximum-Head-Change  Column Row Layer    Maximum-Flux-Residual          L2-NORM 
          0                 1           2             4    7     1       0.1662765159E-02       4    7    1         0.8720602329E-01      0.2452435419E+00
          0                 2           2             4    7     1      -0.1617417654E-03       4    7    1        -0.8720606280E-02      0.2452354153E-01
          0                 3           1             4    7     1       0.1101401387E-04       4    7    1         0.6104426552E-03      0.1716695591E-02

    ------------------------------------------------
       NWT REQUIRED            3 OUTER ITERATIONS 
       AND A TOTAL OF          5 INNER ITERATIONS.
    ------------------------------------------------

 NO OUTPUT CONTROL FOR STRESS PERIOD   15   TIME STEP   15
 
 SOLVING FOR HEAD 
                                                   Max.-Head-Change                         Max.-Flux-Residual
  Residual-Control   Outer-Iter.   Inner-Iter.     Column Row Layer    Maximum-Head-Change  Column Row Layer    Maximum-Flux-Residual          L2-NORM 
          0                 1           2             4    7     1       0.1647300497E-02       4    7    1         0.8639072820E-01      0.2436057882E+00
          0                 2           2             4    7     1      -0.1602374744E-03       4    7    1        -0.8639076672E-02      0.2435987625E-01
          0                 3           1             4    7     1       0.1091157742E-04       4    7    1         0.6047356019E-03      0.1705139697E-02

    ------------------------------------------------
       NWT REQUIRED            3 OUTER ITERATIONS 
       AND A TOTAL OF          5 INNER ITERATIONS.
    ------------------------------------------------

 NO OUTPUT CONTROL FOR STRESS PERIOD   15   TIME STEP   16
 
 SOLVING FOR HEAD 
                                                   Max.-Head-Change                         Max.-Flux-Residual
  Residual-Control   Outer-Iter.   Inner-Iter.     Column Row Layer    Maximum-Head-Change  Column Row Layer    Maximum-Flux-Residual          L2-NORM 
          0                 1           2             4    7     1       0.1632360511E-02       4    7    1         0.8560371837E-01      0.2420100220E+00
          0                 2           2             4    7     1      -0.1587842203E-03       4    7    1        -0.8560375622E-02      0.2420041685E-01
          0                 3           1             4    7     1       0.1081261651E-04       4    7    1         0.5992265328E-03      0.1693953843E-02

    ------------------------------------------------
       NWT REQUIRED            3 OUTER ITERATIONS 
       AND A TOTAL OF          5 INNER ITERATIONS.
    ------------------------------------------------

 NO OUTPUT CONTROL FOR STRESS PERIOD   15   TIME STEP   17
 
 SOLVING FOR HEAD 
                                                   Max.-Head-Change                         Max.-Flux-Residual
  Residual-Control   Outer-Iter.   Inner-Iter.     Column Row Layer    Maximum-Head-Change  Column Row Layer    Maximum-Flux-Residual          L2-NORM 
          0                 1           2             4    7     1       0.1617381236E-02       4    7    1         0.8481427735E-01      0.2404337588E+00
          0                 2           2             4    7     1      -0.1573271438E-03       4    7    1        -0.8481431429E-02      0.2404340072E-01
          0                 3           1             4    7     1       0.1071339480E-04       4    7    1         0.5937004262E-03      0.1682999966E-02

    ------------------------------------------------
       NWT REQUIRED            3 OUTER ITERATIONS 
       AND A TOTAL OF          5 INNER ITERATIONS.
    ------------------------------------------------

 NO OUTPUT CONTROL FOR STRESS PERIOD   15   TIME STEP   18
 
 SOLVING FOR HEAD 
                                                   Max.-Head-Change                         Max.-Flux-Residual
  Residual-Control   Outer-Iter.   Inner-Iter.     Column Row Layer    Maximum-Head-Change  Column Row Layer    Maximum-Flux-Residual          L2-NORM 
          0                 1           2             4    7     1       0.1602650612E-02       4    7    1         0.8403761681E-01      0.2388963311E+00
          0                 2           2             4    7     1      -0.1558942545E-03       4    7    1        -0.8403765297E-02      0.2388828700E-01
          0                 3           1             4    7     1       0.1061582032E-04       4    7    1         0.5882637943E-03      0.1671834759E-02

    ------------------------------------------------
       NWT REQUIRED            3 OUTER ITERATIONS 
       AND A TOTAL OF          5 INNER ITERATIONS.
    ------------------------------------------------

 NO OUTPUT CONTROL FOR STRESS PERIOD   15   TIME STEP   19
 
 SOLVING FOR HEAD 
                                                   Max.-Head-Change                         Max.-Flux-Residual
  Residual-Control   Outer-Iter.   Inner-Iter.     Column Row Layer    Maximum-Head-Change  Column Row Layer    Maximum-Flux-Residual          L2-NORM 
          0                 1           2             4    7     1       0.1588153409E-02       4    7    1         0.8327384861E-01      0.2373761855E+00
          0                 2           2             4    7     1      -0.1544840709E-03       4    7    1        -0.8327388392E-02      0.2373737529E-01
          0                 3           1             4    7     1       0.1051979227E-04       4    7    1         0.5829174183E-03      0.1661599760E-02

    ------------------------------------------------
       NWT REQUIRED            3 OUTER ITERATIONS 
       AND A TOTAL OF          5 INNER ITERATIONS.
    ------------------------------------------------

 NO OUTPUT CONTROL FOR STRESS PERIOD   15   TIME STEP   20
 
 SOLVING FOR HEAD 
                                                   Max.-Head-Change                         Max.-Flux-Residual
  Residual-Control   Outer-Iter.   Inner-Iter.     Column Row Layer    Maximum-Head-Change  Column Row Layer    Maximum-Flux-Residual          L2-NORM 
          0                 1           2             4    7     1       0.1573616081E-02       4    7    1         0.8250736527E-01      0.2358725320E+00
          0                 2           2             4    7     1      -0.1530699842E-03       4    7    1        -0.8250739998E-02      0.2358716603E-01
          0                 3           1             4    7     1       0.1042349796E-04       4    7    1         0.5775520117E-03      0.1651172925E-02

    ------------------------------------------------
       NWT REQUIRED            3 OUTER ITERATIONS 
       AND A TOTAL OF          5 INNER ITERATIONS.
    ------------------------------------------------

 NO OUTPUT CONTROL FOR STRESS PERIOD   15   TIME STEP   21
 
 SOLVING FOR HEAD 
                                                   Max.-Head-Change                         Max.-Flux-Residual
  Residual-Control   Outer-Iter.   Inner-Iter.     Column Row Layer    Maximum-Head-Change  Column Row Layer    Maximum-Flux-Residual          L2-NORM 
          0                 1           2             4    7     1       0.1559586329E-02       4    7    1         0.8176843702E-01      0.2343971194E+00
          0                 2           2             4    7     1      -0.1517052708E-03       4    7    1        -0.8176847090E-02      0.2343961005E-01
          0                 3           1             4    7     1       0.1033056584E-04       4    7    1         0.5723795134E-03      0.1640757961E-02

    ------------------------------------------------
       NWT REQUIRED            3 OUTER ITERATIONS 
       AND A TOTAL OF          5 INNER ITERATIONS.
    ------------------------------------------------

 NO OUTPUT CONTROL FOR STRESS PERIOD   15   TIME STEP   22
 
 SOLVING FOR HEAD 
                                                   Max.-Head-Change                         Max.-Flux-Residual
  Residual-Control   Outer-Iter.   Inner-Iter.     Column Row Layer    Maximum-Head-Change  Column Row Layer    Maximum-Flux-Residual          L2-NORM 
          0                 1           2             4    7     1       0.1545769969E-02       4    7    1         0.8104100817E-01      0.2329477958E+00
          0                 2           2             4    7     1      -0.1503613149E-03       4    7    1        -0.8104104140E-02      0.2329467200E-01
          0                 3           1             4    7     1       0.1023904783E-04       4    7    1         0.5672875100E-03      0.1630601457E-02

    ------------------------------------------------
       NWT REQUIRED            3 OUTER ITERATIONS 
       AND A TOTAL OF          5 INNER ITERATIONS.
    ------------------------------------------------

 NO OUTPUT CONTROL FOR STRESS PERIOD   15   TIME STEP   23
 
 SOLVING FOR HEAD 
                                                   Max.-Head-Change                         Max.-Flux-Residual
  Residual-Control   Outer-Iter.   Inner-Iter.     Column Row Layer    Maximum-Head-Change  Column Row Layer    Maximum-Flux-Residual          L2-NORM 
          0                 1           2             4    7     1       0.1531902361E-02       4    7    1         0.8030982557E-01      0.2315211217E+00
          0                 2           2             4    7     1      -0.1490123737E-03       4    7    1        -0.8030985803E-02      0.2315208694E-01
          0                 3           1             4    7     1       0.1014718997E-04       4    7    1         0.5621692276E-03      0.1620645130E-02

    ------------------------------------------------
       NWT REQUIRED            3 OUTER ITERATIONS 
       AND A TOTAL OF          5 INNER ITERATIONS.
    ------------------------------------------------

 NO OUTPUT CONTROL FOR STRESS PERIOD   15   TIME STEP   24
 
 SOLVING FOR HEAD 
                                                   Max.-Head-Change                         Max.-Flux-Residual
  Residual-Control   Outer-Iter.   Inner-Iter.     Column Row Layer    Maximum-Head-Change  Column Row Layer    Maximum-Flux-Residual          L2-NORM 
          0                 1           2             4    7     1       0.1518528151E-02       4    7    1         0.7960562178E-01      0.2301199003E+00
          0                 2           2             4    7     1      -0.1477114267E-03       4    7    1        -0.7960565362E-02      0.2301196868E-01
          0                 3           1             4    7     1       0.1005860008E-04       4    7    1         0.5572397940E-03      0.1610842519E-02

    ------------------------------------------------
       NWT REQUIRED            3 OUTER ITERATIONS 
       AND A TOTAL OF          5 INNER ITERATIONS.
    ------------------------------------------------

 NO OUTPUT CONTROL FOR STRESS PERIOD   15   TIME STEP   25
 
 SOLVING FOR HEAD 
                                                   Max.-Head-Change                         Max.-Flux-Residual
  Residual-Control   Outer-Iter.   Inner-Iter.     Column Row Layer    Maximum-Head-Change  Column Row Layer    Maximum-Flux-Residual          L2-NORM 
          0                 1           2             4    7     1       0.1505082473E-02       4    7    1         0.7889736415E-01      0.2287230237E+00
          0                 2           2             4    7     1      -0.1464035281E-03       4    7    1        -0.7889739543E-02      0.2287227358E-01
          0                 3           1             4    7     1       0.9969537092E-05       4    7    1         0.5522819838E-03      0.1601001798E-02

    ------------------------------------------------
       NWT REQUIRED            3 OUTER ITERATIONS 
       AND A TOTAL OF          5 INNER ITERATIONS.
    ------------------------------------------------

 NO OUTPUT CONTROL FOR STRESS PERIOD   15   TIME STEP   26
 
 SOLVING FOR HEAD 
                                                   Max.-Head-Change                         Max.-Flux-Residual
  Residual-Control   Outer-Iter.   Inner-Iter.     Column Row Layer    Maximum-Head-Change  Column Row Layer    Maximum-Flux-Residual          L2-NORM 
          0                 1           2             4    7     1       0.1491852144E-02       4    7    1         0.7820021892E-01      0.2273590370E+00
          0                 2           2             4    7     1      -0.1451165766E-03       4    7    1        -0.7820024934E-02      0.2273588160E-01
          0                 3           1             4    7     1       0.9881900530E-05       4    7    1         0.5474019667E-03      0.1591509998E-02

    ------------------------------------------------
       NWT REQUIRED            3 OUTER ITERATIONS 
       AND A TOTAL OF          5 INNER ITERATIONS.
    ------------------------------------------------

 NO OUTPUT CONTROL FOR STRESS PERIOD   15   TIME STEP   27
 
 SOLVING FOR HEAD 
                                                   Max.-Head-Change                         Max.-Flux-Residual
  Residual-Control   Outer-Iter.   Inner-Iter.     Column Row Layer    Maximum-Head-Change  Column Row Layer    Maximum-Flux-Residual          L2-NORM 
          0                 1           2             4    7     1       0.1478827138E-02       4    7    1         0.7751423946E-01      0.2260103440E+00
          0                 2           2             4    7     1      -0.1438495976E-03       4    7    1        -0.7751426927E-02      0.2260100666E-01
          0                 3           1             4    7     1       0.9795624129E-05       4    7    1         0.5426000907E-03      0.1582059253E-02

    ------------------------------------------------
       NWT REQUIRED            3 OUTER ITERATIONS 
       AND A TOTAL OF          5 INNER ITERATIONS.
    ------------------------------------------------

 NO OUTPUT CONTROL FOR STRESS PERIOD   15   TIME STEP   28
 
 SOLVING FOR HEAD 
                                                   Max.-Head-Change                         Max.-Flux-Residual
  Residual-Control   Outer-Iter.   Inner-Iter.     Column Row Layer    Maximum-Head-Change  Column Row Layer    Maximum-Flux-Residual          L2-NORM 
          0                 1           2             4   13     1       0.4546727740E-02       4   13    1         0.2610879430E+00      0.5497959673E+00
          0                 2           2             7   13     1      -0.9468409191E-03       7   13    1        -0.5250726704E-01      0.7382445297E-01
          0                 3           1             7   13     1       0.6445840482E-04       7   13    1         0.3674489959E-02      0.5088956362E-02

    ------------------------------------------------
       NWT REQUIRED            3 OUTER ITERATIONS 
       AND A TOTAL OF          5 INNER ITERATIONS.
    ------------------------------------------------

 NO OUTPUT CONTROL FOR STRESS PERIOD   15   TIME STEP   29
 
 SOLVING FOR HEAD 
                                                   Max.-Head-Change                         Max.-Flux-Residual
  Residual-Control   Outer-Iter.   Inner-Iter.     Column Row Layer    Maximum-Head-Change  Column Row Layer    Maximum-Flux-Residual          L2-NORM 
          0                 1           2             4   13     1       0.2188030651E-01       4   13    1         0.1262810952E+01      0.2310177999E+01
          0                 2           2             4   13     1      -0.2105099053E-02       4   13    1        -0.1249217203E+00      0.2242851300E+00
          0                 3           2             4   13     1       0.1411675399E-03       4   13    1         0.8613309973E-02      0.1507062711E-01
          0                 4           1             4   13     1      -0.5441143149E-05       4   13    1        -0.3413554887E-03      0.5744672270E-03

    ------------------------------------------------
       NWT REQUIRED            4 OUTER ITERATIONS 
       AND A TOTAL OF          7 INNER ITERATIONS.
    ------------------------------------------------

 NO OUTPUT CONTROL FOR STRESS PERIOD   15   TIME STEP   30



 STREAM LISTING     PERIOD     15   STEP       30

 LAYER ROW COL. STREAM  RCH.  FLOW INTO     FLOW TO   FLOW OUT OF   OVRLND.     DIRECT     STREAM       STREAM     STREAM     STREAM   STREAMBED  STREAMBED
                SEG.NO.  NO.  STRM. RCH.    AQUIFER    STRM. RCH.    RUNOFF     PRECIP       ET          HEAD       DEPTH      WIDTH   CONDCTNC.   GRADIENT

   1    1    1     1     1    7.3501E+01  4.1745E-01   7.3084E+01  0.000E+00  0.000E+00  0.000E+00  1.09473E+03  1.681E+00  1.982E+01  8.917E-02  1.560E+00
   1    2    2     1     2    7.3084E+01  6.4666E-01   7.2437E+01  0.000E+00  0.000E+00  0.000E+00  1.08973E+03  1.675E+00  1.976E+01  1.383E-01  1.558E+00
   1    3    3     1     3    7.2437E+01  5.5167E-01   7.1885E+01  0.000E+00  0.000E+00  0.000E+00  1.08409E+03  1.669E+00  1.969E+01  1.182E-01  1.556E+00
   1    3    4     1     4    7.1885E+01  5.0815E-01   7.1377E+01  0.000E+00  0.000E+00  0.000E+00  1.07907E+03  1.663E+00  1.963E+01  1.090E-01  1.554E+00
   1    4    5     2     1    6.9377E+01  4.0746E-01   6.8970E+01  0.000E+00  0.000E+00  0.000E+00  1.07416E+03  2.224E+00  1.200E+01  7.800E-02  1.741E+00
   1    5    6     2     2    6.8970E+01  3.1301E-01   6.8657E+01  0.000E+00  0.000E+00  0.000E+00  1.06873E+03  2.217E+00  1.200E+01  6.000E-02  1.739E+00
   1    6    6     2     3    6.8657E+01  3.1265E-01   6.8344E+01  0.000E+00  0.000E+00  0.000E+00  1.06400E+03  2.211E+00  1.200E+01  6.000E-02  1.737E+00
   1    7    6     2     4    6.8344E+01  3.1229E-01   6.8032E+01  0.000E+00  0.000E+00  0.000E+00  1.05928E+03  2.205E+00  1.200E+01  6.000E-02  1.735E+00
   1    8    6     2     5    6.8032E+01  3.1192E-01   6.7720E+01  0.000E+00  0.000E+00  0.000E+00  1.05456E+03  2.199E+00  1.200E+01  6.000E-02  1.733E+00
   1    3    5     3     1    2.0000E+00  2.8252E-01   1.7175E+00  0.000E+00  0.000E+00  0.000E+00  1.07555E+03  1.909E+00  9.636E+00  7.227E-02  1.955E+00
   1    3    6     3     2    1.7175E+00  2.4905E-01   1.4684E+00  0.000E+00  0.000E+00  0.000E+00  1.07264E+03  1.727E+00  8.909E+00  6.682E-02  1.864E+00
   1    3    7     3     3    1.4684E+00  1.9718E-01   1.2712E+00  0.000E+00  0.000E+00  0.000E+00  1.06987E+03  1.555E+00  8.218E+00  5.547E-02  1.777E+00
   1    4    8     3     4    1.2712E+00  2.2567E-01   1.0456E+00  0.000E+00  0.000E+00  0.000E+00  1.06682E+03  1.364E+00  7.455E+00  6.709E-02  1.682E+00
   1    5    8     3     5    1.0456E+00  1.5790E-01   8.8768E-01  0.000E+00  0.000E+00  0.000E+00  1.06362E+03  1.164E+00  6.655E+00  4.991E-02  1.582E+00
   1    6    8     3     6    8.8768E-01  5.5980E-02   8.3170E-01  0.000E+00  0.000E+00  0.000E+00  1.06158E+03  1.036E+00  6.145E+00  1.844E-02  1.518E+00
   1    5   10     4     1    1.0000E+01  9.0919E-02   9.9091E+00  0.000E+00  0.000E+00  0.000E+00  1.07836E+03  6.368E-01  1.000E+01  2.500E-02  1.212E+00
   1    5    9     4     2    9.9091E+00  1.8158E-01   9.7275E+00  0.000E+00  0.000E+00  0.000E+00  1.07154E+03  6.315E-01  1.000E+01  5.000E-02  1.211E+00
   1    6    8     4     3    9.7275E+00  1.2689E-01   9.6006E+00  0.000E+00  0.000E+00  0.000E+00  1.06381E+03  6.256E-01  1.000E+01  3.500E-02  1.209E+00
   1    6    8     5     1    1.0432E+01  2.2686E-01   1.0205E+01  0.000E+00  0.000E+00  0.000E+00  1.05868E+03  6.790E-01  1.542E+01  6.166E-02  1.226E+00
   1    7    7     5     2    1.0205E+01  2.7894E-01   9.9265E+00  0.000E+00  0.000E+00  0.000E+00  1.05417E+03  6.732E-01  1.519E+01  7.594E-02  1.224E+00
   1    8    7     5     3    9.9265E+00  1.9221E-01   9.7343E+00  0.000E+00  0.000E+00  0.000E+00  1.04992E+03  6.676E-01  1.497E+01  5.241E-02  1.223E+00
   1    8    6     5     4    9.7343E+00  1.3577E-01   9.5985E+00  0.000E+00  0.000E+00  0.000E+00  1.04691E+03  6.637E-01  1.482E+01  3.706E-02  1.221E+00
   1    9    6     6     1    7.7318E+01  3.2406E-01   7.6994E+01  0.000E+00  0.000E+00  0.000E+00  1.04513E+03  2.401E+00  1.200E+01  6.000E-02  1.800E+00
   1   10    7     6     2    7.6994E+01  3.2370E-01   7.6671E+01  0.000E+00  0.000E+00  0.000E+00  1.04058E+03  2.395E+00  1.200E+01  6.000E-02  1.798E+00
   1   11    7     6     3    7.6671E+01  3.2333E-01   7.6347E+01  0.000E+00  0.000E+00  0.000E+00  1.03603E+03  2.389E+00  1.200E+01  6.000E-02  1.796E+00
   1   12    7     6     4    7.6347E+01  3.2297E-01   7.6024E+01  0.000E+00  0.000E+00  0.000E+00  1.03147E+03  2.383E+00  1.200E+01  6.000E-02  1.794E+00
   1   13    7     6     5    7.6024E+01  2.8172E-02   7.5996E+01  0.000E+00  0.000E+00  0.000E+00  1.02829E+03  2.380E+00  1.200E+01  2.400E-02  3.913E-01
   1   14    9     7     1    1.5000E+02  1.3362E+00   1.4866E+02  0.000E+00  0.000E+00  0.000E+00  1.03987E+03  2.288E+00  5.529E+01  5.593E-01  7.963E-01
   1   13    8     7     2    1.4866E+02  1.8235E+00   1.4684E+02  0.000E+00  0.000E+00  0.000E+00  1.03478E+03  2.279E+00  5.526E+01  6.148E-01  9.887E-01
   1   13    7     7     3    1.4684E+02  1.4381E+00   1.4540E+02  0.000E+00  0.000E+00  0.000E+00  1.02969E+03  2.271E+00  5.522E+01  5.585E-01  8.584E-01
   1   13    6     8     1    2.2140E+02  1.1193E+00   2.2028E+02  0.000E+00  0.000E+00  0.000E+00  1.02513E+03  3.257E+00  4.722E+01  4.812E-01  7.754E-01
   1   13    5     8     2    2.2028E+02  2.9243E-01   2.1999E+02  0.000E+00  0.000E+00  0.000E+00  1.01888E+03  3.253E+00  4.716E+01  4.806E-01  2.028E-01
   1   13    4     8     3    2.1999E+02 -1.4537E+00   2.2144E+02  0.000E+00  0.000E+00  0.000E+00  1.01263E+03  3.256E+00  4.721E+01  4.811E+00 -1.007E-01
   1   13    3     8     4    2.2144E+02 -2.6944E+00   2.2413E+02  0.000E+00  0.000E+00  0.000E+00  1.00639E+03  3.267E+00  4.738E+01  4.828E+00 -1.860E-01
   1   13    2     8     5    2.2413E+02 -1.4667E+00   2.2560E+02  0.000E+00  0.000E+00  0.000E+00  1.00015E+03  3.279E+00  4.754E+01  4.845E+00 -1.009E-01
   1   13    1     8     6    2.2560E+02 -1.3334E+00   2.2693E+02  0.000E+00  0.000E+00  0.000E+00  9.95161E+02  3.286E+00  4.765E+01  2.914E+00 -1.526E-01
   1    8    6     9     1    0.0000E+00  0.0000E+00   0.0000E+00  0.000E+00  0.000E+00  0.000E+00  1.07875E+03  0.000E+00  4.000E+00  0.000E+00  1.000E+00
   1    8    5     9     2    0.0000E+00  0.0000E+00   0.0000E+00  0.000E+00  0.000E+00  0.000E+00  1.07825E+03  0.000E+00  4.000E+00  0.000E+00  1.000E+00





UNSATURATED ZONE PACKAGE VOLUMETRIC BUDGET FOR  TIME STEP    30 STRESS PERIOD   15
  ------------------------------------------------------------------------------



     CUMULATIVE VOLUMES      L**3       RATES FOR THIS TIME STEP      L**3/T
     ------------------                 ------------------------

           IN:                                      IN:
           ---                                      ---
        INFILTRATION =   563102339.2805          INFILTRATION =           4.4075

          OUT:                                     OUT:
          ----                                     ----
              UZF ET =   501973537.9518                UZF ET =           0.7250
        UZF RECHARGE =       73224.0000          UZF RECHARGE =       0.0000E+00

            IN - OUT =    61055577.3287              IN - OUT =           3.6825

          STORAGE:                                 STORAGE:
          --------                                 --------
      STORAGE CHANGE =    61055568.2031        STORAGE CHANGE =           3.6825

 PERCENT DISCREPANCY IS DIFFERENCE BETWEEN IN-OUT MINUS CHANGE IN STORAGE
 DIVIDED BY THE AVERAGE OF IN AND OUT TIMES 100

 PERCENT DISCREPANCY =           0.00     PERCENT DISCREPANCY =           0.00






1
  VOLUMETRIC BUDGET FOR ENTIRE MODEL AT END OF TIME STEP   30, STRESS PERIOD  15
  ------------------------------------------------------------------------------

     CUMULATIVE VOLUMES      L**3       RATES FOR THIS TIME STEP      L**3/T
     ------------------                 ------------------------

           IN:                                      IN:
           ---                                      ---
               AG WELLS  =    44426692.0000                 AG WELLS  =           0.0000
      DIVERSION SEGMENTS =   356311200.0000        DIVERSION SEGMENTS =           0.0000
           GW IRRIGATION =           0.0000             GW IRRIGATION =           0.0000
           SW IRRIGATION =           0.0000             SW IRRIGATION =           0.0000
        SYSTEM LOSSES GW =           0.0000          SYSTEM LOSSES GW =           0.0000
        SYSTEM LOSSES SW =           0.0000          SYSTEM LOSSES SW =           0.0000

                TOTAL IN =   400737888.0000                  TOTAL IN =           0.0000

          OUT:                                     OUT:
          ----                                     ----
               AG WELLS  =           0.0000                 AG WELLS  =           0.0000
      DIVERSION SEGMENTS =           0.0000        DIVERSION SEGMENTS =           0.0000
           GW IRRIGATION =    44426692.0000             GW IRRIGATION =           0.0000
           SW IRRIGATION =   356318336.0000             SW IRRIGATION =           0.0000
        SYSTEM LOSSES GW =           0.0000          SYSTEM LOSSES GW =           0.0000
        SYSTEM LOSSES SW =           0.0000          SYSTEM LOSSES SW =           0.0000

               TOTAL OUT =   400745024.0000                 TOTAL OUT =           0.0000

                IN - OUT =       -7136.0000                  IN - OUT =           0.0000

     PERCENT DISCREPANCY =          -0.00         PERCENT DISCREPANCY =           0.00



1
  VOLUMETRIC BUDGET FOR ENTIRE MODEL AT END OF TIME STEP   30, STRESS PERIOD  15
  ------------------------------------------------------------------------------

     CUMULATIVE VOLUMES      L**3       RATES FOR THIS TIME STEP      L**3/T
     ------------------                 ------------------------

           IN:                                      IN:
           ---                                      ---
             STORAGE     =    85473624.0000               STORAGE     =           0.5631
       CONSTANT HEAD     =           0.0000         CONSTANT HEAD     =           0.0000
     HEAD DEP BOUNDS     =    10546454.0000       HEAD DEP BOUNDS     =           0.2858
      STREAM LEAKAGE     =   437375648.0000        STREAM LEAKAGE     =          13.5145
        UZF RECHARGE     =       73223.9531          UZF RECHARGE     =           0.0000
               GW ET     =           0.0000                 GW ET     =           0.0000
     SURFACE LEAKAGE     =           0.0000       SURFACE LEAKAGE     =           0.0000
           AG WELLS      =           0.0000             AG WELLS      =           0.0000

                TOTAL IN =   533468928.0000                  TOTAL IN =          14.3634

          OUT:                                     OUT:
          ----                                     ----
             STORAGE     =    76221800.0000               STORAGE     =           7.1257
       CONSTANT HEAD     =           0.0000         CONSTANT HEAD     =           0.0000
     HEAD DEP BOUNDS     =    10722300.0000       HEAD DEP BOUNDS     =           0.2895
      STREAM LEAKAGE     =   400582656.0000        STREAM LEAKAGE     =           6.9482
        UZF RECHARGE     =           0.0000          UZF RECHARGE     =           0.0000
               GW ET     =     1517575.6250                 GW ET     =           0.0000
     SURFACE LEAKAGE     =           0.0000       SURFACE LEAKAGE     =           0.0000
           AG WELLS      =    44426692.0000             AG WELLS      =           0.0000

               TOTAL OUT =   533471008.0000                 TOTAL OUT =          14.3634

                IN - OUT =       -2080.0000                  IN - OUT =       2.6703E-05

     PERCENT DISCREPANCY =          -0.00         PERCENT DISCREPANCY =           0.00






         TIME SUMMARY AT END OF TIME STEP   30 IN STRESS PERIOD   15
                    SECONDS     MINUTES      HOURS       DAYS        YEARS
                    -----------------------------------------------------------
   TIME STEP LENGTH  87667.      1461.1      24.352      1.0147     2.77799E-03
 STRESS PERIOD TIME 2.63000E+06  43833.      730.56      30.440     8.33397E-02
         TOTAL TIME 3.69063E+07 6.15106E+05  10252.      427.16      1.1695    
1
1
                            STRESS PERIOD NO.   16, LENGTH =   2630000.    
                            -----------------------------------------------

                              NUMBER OF TIME STEPS =    30

                               MULTIPLIER FOR DELT =     1.000

                            INITIAL TIME STEP SIZE =   87666.66    

 REUSING NON-PARAMETER GHB CELLS FROM LAST STRESS PERIOD

      2 GHB CELLS

 REUSING STREAM SEGMENT DATA FROM LAST STRESS PERIOD



            AREAL INFILTRATION RATE
 READING ON UNIT   19 WITH FORMAT: (10F4.0)            

            1           2           3           4           5           6           7           8           9          10
 ........................................................................................................................
   1   1.2000E-09   0.000       0.000       0.000       0.000       0.000       0.000       0.000       0.000       0.000    
   2   2.1000E-09  2.0000E-09  8.0000E-10  8.5000E-09   0.000       0.000       0.000       0.000       0.000       0.000    
   3   5.0000E-10  1.1000E-09  8.8000E-09  5.5000E-09   0.000       0.000       0.000       0.000       0.000       0.000    
   4   8.5000E-09  1.1000E-09  1.1000E-09  1.1000E-09  2.0000E-09   0.000       0.000       0.000       0.000       0.000    
   5   8.5000E-09  1.1000E-09  1.1000E-09  1.1000E-09  1.1000E-09   0.000       0.000       0.000       0.000       0.000    
   6   8.5000E-09  5.2000E-09  2.1000E-09  1.1000E-09  1.5000E-09   0.000       0.000       0.000       0.000       0.000    
   7   8.5000E-09  5.2000E-09  2.1000E-09  1.2000E-09  2.0000E-09   0.000       0.000       0.000       0.000       0.000    
   8   5.0000E-10  5.2000E-09  2.1000E-09  1.2000E-09  5.0000E-09   0.000       0.000       0.000       0.000       0.000    
   9   5.0000E-10  5.2000E-09  2.1000E-09  1.2000E-09  5.0000E-09   0.000       0.000       0.000       0.000       0.000    
  10   5.0000E-10  5.2000E-09  2.1000E-09  1.2000E-09  5.8000E-09   0.000       0.000       0.000       0.000       0.000    
  11   1.0000E-10  1.1000E-09  1.1000E-09  1.2000E-09  5.0000E-09   0.000       0.000       0.000       0.000       0.000    
  12   1.1000E-09  1.1000E-09  1.1000E-09  1.1000E-09  2.0000E-09   0.000       0.000       0.000       0.000       0.000    
  13   1.1000E-09  2.2000E-09  2.2000E-09  2.1000E-09  1.0000E-09   0.000       0.000       0.000       0.000       0.000    
  14   2.0000E-10  5.5000E-09  5.5000E-09  5.2000E-09  1.0000E-09   0.000       0.000       0.000       0.000       0.000    
  15    0.000      8.8000E-09  8.8000E-09   0.000       0.000       0.000       0.000       0.000       0.000       0.000    

                  ET RATE =  5.000000E-10

 USING ET EXTINCTION DEPTH FROM PREVIOUS STRESS PERIOD. CURRENT PERIOD IS:      16

 USING EXTINCTION WATER CONTENT FROM PREVIOUS STRESS PERIOD. CURRENT PERIOD IS:      16

 USING AIR ENTRY PRESSURE FROM PREVIOUS STRESS PERIOD. CURRENT PERIOD IS:      16

 USING ROOT PRESSURE HEAD FROM PREVIOUS STRESS PERIOD. CURRENT PERIOD IS:      16

 USING ROOT ACTIVITY FROM PREVIOUS STRESS PERIOD. CURRENT PERIOD IS:      16

 PROCESSING AG STRESS PERIOD DATA

 READING AG STRESS PERIOD DATA

 READING IRRIGATION SEGMENT

 READING IRRIGATION WELL

 READING SUPPLEMENTAL WELL

 END PROCESSING AG STRESS PERIOD DATA OPTIONS
 
 SOLVING FOR HEAD 
                                                   Max.-Head-Change                         Max.-Flux-Residual
  Residual-Control   Outer-Iter.   Inner-Iter.     Column Row Layer    Maximum-Head-Change  Column Row Layer    Maximum-Flux-Residual          L2-NORM 
          0                 1           2             2   13     1       0.1972198146E-01       4   13    1         0.1137382445E+01      0.2136021013E+01
          0                 2           2             4   13     1      -0.1871454469E-02       4   13    1        -0.1125100635E+00      0.1907636647E+00
          0                 3           2             4   13     1       0.1275065161E-03       4   13    1         0.7775312067E-02      0.1417790203E-01
          0                 4           1             3   13     1       0.1530852174E-04       3   13    1         0.8928751940E-03      0.1012592399E-02

    ------------------------------------------------
       NWT REQUIRED            4 OUTER ITERATIONS 
       AND A TOTAL OF          7 INNER ITERATIONS.
    ------------------------------------------------

 NO OUTPUT CONTROL FOR STRESS PERIOD   16   TIME STEP    1
 
 SOLVING FOR HEAD 
                                                   Max.-Head-Change                         Max.-Flux-Residual
  Residual-Control   Outer-Iter.   Inner-Iter.     Column Row Layer    Maximum-Head-Change  Column Row Layer    Maximum-Flux-Residual          L2-NORM 
          0                 1           2             2   13     1       0.1819004796E-01       2   13    1         0.1029625179E+01      0.1992419510E+01
          0                 2           2             3   13     1       0.2199448454E-02       3   13    1         0.1293634461E+00      0.2132714364E+00
          0                 3           2             3   13     1       0.2777424778E-03       3   13    1         0.1597715427E-01      0.1985639300E-01
          0                 4           1             3   13     1       0.3568787156E-04       3   13    1         0.2073818089E-02      0.2117514491E-02

    ------------------------------------------------
       NWT REQUIRED            4 OUTER ITERATIONS 
       AND A TOTAL OF          7 INNER ITERATIONS.
    ------------------------------------------------

 NO OUTPUT CONTROL FOR STRESS PERIOD   16   TIME STEP    2
 
 SOLVING FOR HEAD 
                                                   Max.-Head-Change                         Max.-Flux-Residual
  Residual-Control   Outer-Iter.   Inner-Iter.     Column Row Layer    Maximum-Head-Change  Column Row Layer    Maximum-Flux-Residual          L2-NORM 
          0                 1           2             2   13     1       0.1678980429E-01       2   13    1         0.9505233912E+00      0.1839473383E+01
          0                 2           2             3   13     1       0.1958018558E-02       3   13    1         0.1152215355E+00      0.1959544761E+00
          0                 3           2             3   13     1       0.2479847942E-03       3   13    1         0.1426201307E-01      0.1802230872E-01
          0                 4           1             3   13     1       0.3196404577E-04       3   13    1         0.1857591206E-02      0.1900629787E-02

    ------------------------------------------------
       NWT REQUIRED            4 OUTER ITERATIONS 
       AND A TOTAL OF          7 INNER ITERATIONS.
    ------------------------------------------------

 NO OUTPUT CONTROL FOR STRESS PERIOD   16   TIME STEP    3
 
 SOLVING FOR HEAD 
                                                   Max.-Head-Change                         Max.-Flux-Residual
  Residual-Control   Outer-Iter.   Inner-Iter.     Column Row Layer    Maximum-Head-Change  Column Row Layer    Maximum-Flux-Residual          L2-NORM 
          0                 1           2             2   13     1       0.1549206625E-01       2   13    1         0.8771753165E+00      0.1703235563E+01
          0                 2           2             3   13     1       0.1771481497E-02       3   13    1         0.1026757497E+00      0.1781789828E+00
          0                 3           2             3   13     1       0.2328176706E-03       3   13    1         0.1334882299E-01      0.1880431218E-01
          0                 4           1             3   13     1       0.3060113605E-04       3   13    1         0.1763523289E-02      0.2190838799E-02

    ------------------------------------------------
       NWT REQUIRED            4 OUTER ITERATIONS 
       AND A TOTAL OF          7 INNER ITERATIONS.
    ------------------------------------------------

 NO OUTPUT CONTROL FOR STRESS PERIOD   16   TIME STEP    4
 
 SOLVING FOR HEAD 
                                                   Max.-Head-Change                         Max.-Flux-Residual
  Residual-Control   Outer-Iter.   Inner-Iter.     Column Row Layer    Maximum-Head-Change  Column Row Layer    Maximum-Flux-Residual          L2-NORM 
          0                 1           2             2   13     1       0.1429598665E-01       2   13    1         0.8095290882E+00      0.1592920749E+01
          0                 2           2             4   13     1       0.1717026064E-02       4   13    1         0.9954303730E-01      0.1794063071E+00
          0                 3           2             4   13     1       0.2181999308E-03       4   13    1         0.1258289318E-01      0.1938287413E-01
          0                 4           1             3   13     1       0.2797751847E-04       3   13    1         0.1607875451E-02      0.2291597524E-02

    ------------------------------------------------
       NWT REQUIRED            4 OUTER ITERATIONS 
       AND A TOTAL OF          7 INNER ITERATIONS.
    ------------------------------------------------

 NO OUTPUT CONTROL FOR STRESS PERIOD   16   TIME STEP    5
 
 SOLVING FOR HEAD 
                                                   Max.-Head-Change                         Max.-Flux-Residual
  Residual-Control   Outer-Iter.   Inner-Iter.     Column Row Layer    Maximum-Head-Change  Column Row Layer    Maximum-Flux-Residual          L2-NORM 
          0                 1           2             2   13     1       0.1319067983E-01       2   13    1         0.7469941123E+00      0.1474972648E+01
          0                 2           2             4   13     1       0.1512938254E-02       4   13    1         0.8775259613E-01      0.1648089825E+00
          0                 3           2             4   13     1       0.1924902041E-03       4   13    1         0.1109485075E-01      0.1748174369E-01
          0                 4           1             3   13     1       0.2517533662E-04       3   13    1         0.1447230487E-02      0.2045709752E-02

    ------------------------------------------------
       NWT REQUIRED            4 OUTER ITERATIONS 
       AND A TOTAL OF          7 INNER ITERATIONS.
    ------------------------------------------------

 NO OUTPUT CONTROL FOR STRESS PERIOD   16   TIME STEP    6
 
 SOLVING FOR HEAD 
                                                   Max.-Head-Change                         Max.-Flux-Residual
  Residual-Control   Outer-Iter.   Inner-Iter.     Column Row Layer    Maximum-Head-Change  Column Row Layer    Maximum-Flux-Residual          L2-NORM 
          0                 1           2             2   13     1       0.1216748327E-01       2   13    1         0.6890877296E+00      0.1371705093E+01
          0                 2           2             4   13     1       0.1331520252E-02       4   13    1         0.7727146003E-01      0.1518612057E+00
          0                 3           2             4   13     1       0.1699722005E-03       4   13    1         0.9792394480E-02      0.1578022525E-01
          0                 4           1             3   13     1       0.2245529361E-04       3   13    1         0.1291016310E-02      0.1822853496E-02

    ------------------------------------------------
       NWT REQUIRED            4 OUTER ITERATIONS 
       AND A TOTAL OF          7 INNER ITERATIONS.
    ------------------------------------------------

 NO OUTPUT CONTROL FOR STRESS PERIOD   16   TIME STEP    7
 
 SOLVING FOR HEAD 
                                                   Max.-Head-Change                         Max.-Flux-Residual
  Residual-Control   Outer-Iter.   Inner-Iter.     Column Row Layer    Maximum-Head-Change  Column Row Layer    Maximum-Flux-Residual          L2-NORM 
          0                 1           2             2   13     1       0.1122081996E-01       2   13    1         0.6354982241E+00      0.1281251850E+01
          0                 2           2             4   13     1       0.1174289844E-02       4   13    1         0.6818718053E-01      0.1406228233E+00
          0                 3           2             3   13     1       0.1514774179E-03       3   13    1         0.8656238678E-02      0.1430104110E-01
          0                 4           1             3   13     1       0.2016789431E-04       3   13    1         0.1159815968E-02      0.1626355048E-02

    ------------------------------------------------
       NWT REQUIRED            4 OUTER ITERATIONS 
       AND A TOTAL OF          7 INNER ITERATIONS.
    ------------------------------------------------

 NO OUTPUT CONTROL FOR STRESS PERIOD   16   TIME STEP    8
 
 SOLVING FOR HEAD 
                                                   Max.-Head-Change                         Max.-Flux-Residual
  Residual-Control   Outer-Iter.   Inner-Iter.     Column Row Layer    Maximum-Head-Change  Column Row Layer    Maximum-Flux-Residual          L2-NORM 
          0                 1           2             2   13     1       0.1034570163E-01       2   13    1         0.5859469621E+00      0.1201978199E+01
          0                 2           2             4   13     1       0.1034853770E-02       4   13    1         0.6012992080E-01      0.1307282805E+00
          0                 3           2             3   13     1       0.1353650960E-03       3   13    1         0.7734480636E-02      0.1299148393E-01
          0                 4           1             3   13     1       0.1800113457E-04       3   13    1         0.1035365287E-02      0.1451104928E-02

    ------------------------------------------------
       NWT REQUIRED            4 OUTER ITERATIONS 
       AND A TOTAL OF          7 INNER ITERATIONS.
    ------------------------------------------------

 NO OUTPUT CONTROL FOR STRESS PERIOD   16   TIME STEP    9
 
 SOLVING FOR HEAD 
                                                   Max.-Head-Change                         Max.-Flux-Residual
  Residual-Control   Outer-Iter.   Inner-Iter.     Column Row Layer    Maximum-Head-Change  Column Row Layer    Maximum-Flux-Residual          L2-NORM 
          0                 1           2             2   13     1       0.9536894001E-02       2   13    1         0.5401401839E+00      0.1132461158E+01
          0                 2           2             4   13     1       0.9153026796E-03       4   13    1         0.5322301803E-01      0.1221177670E+00
          0                 3           2             3   13     1       0.1208678951E-03       3   13    1         0.6905013245E-02      0.1183785668E-01
          0                 4           1             3   13     1       0.1606843925E-04       3   13    1         0.9243692448E-03      0.1294131985E-02

    ------------------------------------------------
       NWT REQUIRED            4 OUTER ITERATIONS 
       AND A TOTAL OF          7 INNER ITERATIONS.
    ------------------------------------------------

 NO OUTPUT CONTROL FOR STRESS PERIOD   16   TIME STEP   10
 
 SOLVING FOR HEAD 
                                                   Max.-Head-Change                         Max.-Flux-Residual
  Residual-Control   Outer-Iter.   Inner-Iter.     Column Row Layer    Maximum-Head-Change  Column Row Layer    Maximum-Flux-Residual          L2-NORM 
          0                 1           2             2   13     1       0.8790035185E-02       2   13    1         0.4978335348E+00      0.1071443449E+01
          0                 2           2             3   13     1       0.8148880788E-03       2   13    1        -0.4788127405E-01      0.1145787317E+00
          0                 3           1             3   13     1       0.1084751901E-03       3   13    1         0.6196498402E-02      0.1083774046E-01
          0                 4           1             3   13     1       0.1447698006E-04       3   13    1         0.8330273949E-03      0.1159946453E-02

    ------------------------------------------------
       NWT REQUIRED            4 OUTER ITERATIONS 
       AND A TOTAL OF          6 INNER ITERATIONS.
    ------------------------------------------------

 NO OUTPUT CONTROL FOR STRESS PERIOD   16   TIME STEP   11
 
 SOLVING FOR HEAD 
                                                   Max.-Head-Change                         Max.-Flux-Residual
  Residual-Control   Outer-Iter.   Inner-Iter.     Column Row Layer    Maximum-Head-Change  Column Row Layer    Maximum-Flux-Residual          L2-NORM 
          0                 1           2             2   13     1       0.8100633065E-02       2   13    1         0.4587748278E+00      0.1017834239E+01
          0                 2           2             2   13     1      -0.7483578044E-03       2   13    1        -0.4416549171E-01      0.1079827328E+00
          0                 3           1             3   13     1       0.9704775538E-04       3   13    1         0.5542732271E-02      0.9957785409E-02

    ------------------------------------------------
       NWT REQUIRED            3 OUTER ITERATIONS 
       AND A TOTAL OF          5 INNER ITERATIONS.
    ------------------------------------------------

 NO OUTPUT CONTROL FOR STRESS PERIOD   16   TIME STEP   12
 
 SOLVING FOR HEAD 
                                                   Max.-Head-Change                         Max.-Flux-Residual
  Residual-Control   Outer-Iter.   Inner-Iter.     Column Row Layer    Maximum-Head-Change  Column Row Layer    Maximum-Flux-Residual          L2-NORM 
          0                 1           2             2   13     1       0.7464211525E-02       2   13    1         0.4227113075E+00      0.9707048052E+00
          0                 2           2             2   13     1      -0.6904151266E-03       2   13    1        -0.4072785708E-01      0.1022539460E+00
          0                 3           1             3   13     1       0.8678810372E-04       3   13    1         0.4955489087E-02      0.9199822959E-02

    ------------------------------------------------
       NWT REQUIRED            3 OUTER ITERATIONS 
       AND A TOTAL OF          5 INNER ITERATIONS.
    ------------------------------------------------

 NO OUTPUT CONTROL FOR STRESS PERIOD   16   TIME STEP   13
 
 SOLVING FOR HEAD 
                                                   Max.-Head-Change                         Max.-Flux-Residual
  Residual-Control   Outer-Iter.   Inner-Iter.     Column Row Layer    Maximum-Head-Change  Column Row Layer    Maximum-Flux-Residual          L2-NORM 
          0                 1           2             2   13     1       0.6877909899E-02       2   13    1         0.3895036412E+00      0.9285615000E+00
          0                 2           2             2   13     1      -0.6376508035E-03       2   13    1        -0.3761586219E-01      0.9799958389E-01
          0                 3           1             3   13     1       0.8233866928E-04       3   13    1         0.4704456715E-02      0.8679169173E-02

    ------------------------------------------------
       NWT REQUIRED            3 OUTER ITERATIONS 
       AND A TOTAL OF          5 INNER ITERATIONS.
    ------------------------------------------------

 NO OUTPUT CONTROL FOR STRESS PERIOD   16   TIME STEP   14
 
 SOLVING FOR HEAD 
                                                   Max.-Head-Change                         Max.-Flux-Residual
  Residual-Control   Outer-Iter.   Inner-Iter.     Column Row Layer    Maximum-Head-Change  Column Row Layer    Maximum-Flux-Residual          L2-NORM 
          0                 1           2             1   13     1       0.6339936631E-02       2   13    1         0.3587810752E+00      0.8925084446E+00
          0                 2           2             2    2     1      -0.6006448989E-03       2   13    1        -0.3461822147E-01      0.9279370818E-01
          0                 3           1             3   13     1       0.6953232106E-04       3   13    1         0.3968213795E-02      0.7948596339E-02

    ------------------------------------------------
       NWT REQUIRED            3 OUTER ITERATIONS 
       AND A TOTAL OF          5 INNER ITERATIONS.
    ------------------------------------------------

 NO OUTPUT CONTROL FOR STRESS PERIOD   16   TIME STEP   15
 
 SOLVING FOR HEAD 
                                                   Max.-Head-Change                         Max.-Flux-Residual
  Residual-Control   Outer-Iter.   Inner-Iter.     Column Row Layer    Maximum-Head-Change  Column Row Layer    Maximum-Flux-Residual          L2-NORM 
          0                 1           2             2    2     1       0.6136614091E-02       2   13    1         0.3305232923E+00      0.8600855199E+00
          0                 2           2             2    2     1      -0.5969269048E-03       1   13    1        -0.3204363527E-01      0.8895040268E-01
          0                 3           1             3   13     1       0.6260807912E-04       3   13    1         0.3572303702E-02      0.7453502783E-02

    ------------------------------------------------
       NWT REQUIRED            3 OUTER ITERATIONS 
       AND A TOTAL OF          5 INNER ITERATIONS.
    ------------------------------------------------

 NO OUTPUT CONTROL FOR STRESS PERIOD   16   TIME STEP   16
 
 SOLVING FOR HEAD 
                                                   Max.-Head-Change                         Max.-Flux-Residual
  Residual-Control   Outer-Iter.   Inner-Iter.     Column Row Layer    Maximum-Head-Change  Column Row Layer    Maximum-Flux-Residual          L2-NORM 
          0                 1           2             2    2     1       0.6098932588E-02       2    2    1         0.3183885572E+00      0.8313420530E+00
          0                 2           2             2    2     1      -0.5932614926E-03       2    2    1        -0.3183896580E-01      0.8556020621E-01
          0                 3           1             3   13     1       0.5618168883E-04       3   13    1         0.3204626103E-02      0.7018808924E-02

    ------------------------------------------------
       NWT REQUIRED            3 OUTER ITERATIONS 
       AND A TOTAL OF          5 INNER ITERATIONS.
    ------------------------------------------------

 NO OUTPUT CONTROL FOR STRESS PERIOD   16   TIME STEP   17
 
 SOLVING FOR HEAD 
                                                   Max.-Head-Change                         Max.-Flux-Residual
  Residual-Control   Outer-Iter.   Inner-Iter.     Column Row Layer    Maximum-Head-Change  Column Row Layer    Maximum-Flux-Residual          L2-NORM 
          0                 1           2             2    2     1       0.6061695895E-02       2    2    1         0.3164302477E+00      0.8058122366E+00
          0                 2           2             2    2     1      -0.5896393504E-03       2    2    1        -0.3164313300E-01      0.8257809357E-01
          0                 3           1             3   13     1       0.5044868101E-04       3   13    1         0.2876557776E-02      0.6644682879E-02

    ------------------------------------------------
       NWT REQUIRED            3 OUTER ITERATIONS 
       AND A TOTAL OF          5 INNER ITERATIONS.
    ------------------------------------------------

 NO OUTPUT CONTROL FOR STRESS PERIOD   16   TIME STEP   18
 
 SOLVING FOR HEAD 
                                                   Max.-Head-Change                         Max.-Flux-Residual
  Residual-Control   Outer-Iter.   Inner-Iter.     Column Row Layer    Maximum-Head-Change  Column Row Layer    Maximum-Flux-Residual          L2-NORM 
          0                 1           2             2    2     1       0.6025071238E-02       2    2    1         0.3145041380E+00      0.7830819213E+00
          0                 2           2             2    2     1      -0.5860767422E-03       2    2    1        -0.3145052022E-01      0.7996352800E-01
          0                 3           1             3   13     1       0.4528102457E-04       3   13    1         0.2580791833E-02      0.6320297349E-02

    ------------------------------------------------
       NWT REQUIRED            3 OUTER ITERATIONS 
       AND A TOTAL OF          5 INNER ITERATIONS.
    ------------------------------------------------

 NO OUTPUT CONTROL FOR STRESS PERIOD   16   TIME STEP   19
 
 SOLVING FOR HEAD 
                                                   Max.-Head-Change                         Max.-Flux-Residual
  Residual-Control   Outer-Iter.   Inner-Iter.     Column Row Layer    Maximum-Head-Change  Column Row Layer    Maximum-Flux-Residual          L2-NORM 
          0                 1           2             2    2     1       0.5988787646E-02       2    2    1         0.3125960555E+00      0.7627840149E+00
          0                 2           2             2    2     1      -0.5825473109E-03       2    2    1        -0.3125971018E-01      0.7764206221E-01
          0                 3           1             3   13     1       0.4071276675E-04       3   13    1         0.2319466552E-02      0.6036718561E-02

    ------------------------------------------------
       NWT REQUIRED            3 OUTER ITERATIONS 
       AND A TOTAL OF          5 INNER ITERATIONS.
    ------------------------------------------------

 NO OUTPUT CONTROL FOR STRESS PERIOD   16   TIME STEP   20
 
 SOLVING FOR HEAD 
                                                   Max.-Head-Change                         Max.-Flux-Residual
  Residual-Control   Outer-Iter.   Inner-Iter.     Column Row Layer    Maximum-Head-Change  Column Row Layer    Maximum-Flux-Residual          L2-NORM 
          0                 1           2             2    2     1       0.5953100392E-02       2    2    1         0.3107193633E+00      0.7446197405E+00
          0                 2           2             2    2     1      -0.5790758878E-03       2    2    1        -0.3107203921E-01      0.7558685395E-01
          0                 3           1             2    2     1       0.3943290583E-04       2    2    1         0.2175042712E-02      0.5792904816E-02

    ------------------------------------------------
       NWT REQUIRED            3 OUTER ITERATIONS 
       AND A TOTAL OF          5 INNER ITERATIONS.
    ------------------------------------------------

 NO OUTPUT CONTROL FOR STRESS PERIOD   16   TIME STEP   21
 
 SOLVING FOR HEAD 
                                                   Max.-Head-Change                         Max.-Flux-Residual
  Residual-Control   Outer-Iter.   Inner-Iter.     Column Row Layer    Maximum-Head-Change  Column Row Layer    Maximum-Flux-Residual          L2-NORM 
          0                 1           2             2    2     1       0.5917825747E-02       2    2    1         0.3088644524E+00      0.7283190211E+00
          0                 2           2             2    2     1      -0.5756446014E-03       2    2    1        -0.3088654642E-01      0.7376141715E-01
          0                 3           1             2    2     1       0.3919924872E-04       2    2    1         0.2162058246E-02      0.5581399799E-02

    ------------------------------------------------
       NWT REQUIRED            3 OUTER ITERATIONS 
       AND A TOTAL OF          5 INNER ITERATIONS.
    ------------------------------------------------

 NO OUTPUT CONTROL FOR STRESS PERIOD   16   TIME STEP   22
 
 SOLVING FOR HEAD 
                                                   Max.-Head-Change                         Max.-Flux-Residual
  Residual-Control   Outer-Iter.   Inner-Iter.     Column Row Layer    Maximum-Head-Change  Column Row Layer    Maximum-Flux-Residual          L2-NORM 
          0                 1           2             2    2     1       0.5883044130E-02       2    2    1         0.3070355039E+00      0.7136465713E+00
          0                 2           2             2    2     1      -0.5722612730E-03       2    2    1        -0.3070364991E-01      0.7213401227E-01
          0                 3           1             2    2     1       0.3896885652E-04       2    2    1         0.2149255473E-02      0.5398827065E-02

    ------------------------------------------------
       NWT REQUIRED            3 OUTER ITERATIONS 
       AND A TOTAL OF          5 INNER ITERATIONS.
    ------------------------------------------------

 NO OUTPUT CONTROL FOR STRESS PERIOD   16   TIME STEP   23
 
 SOLVING FOR HEAD 
                                                   Max.-Head-Change                         Max.-Flux-Residual
  Residual-Control   Outer-Iter.   Inner-Iter.     Column Row Layer    Maximum-Head-Change  Column Row Layer    Maximum-Flux-Residual          L2-NORM 
          0                 1           2             2    2     1       0.5848747234E-02       2    2    1         0.3052321183E+00      0.7003946312E+00
          0                 2           2             2    2     1      -0.5689250958E-03       2    2    1        -0.3052330973E-01      0.7067867481E-01
          0                 3           1             2    2     1       0.3874167551E-04       2    2    1         0.2136631686E-02      0.5239188235E-02

    ------------------------------------------------
       NWT REQUIRED            3 OUTER ITERATIONS 
       AND A TOTAL OF          5 INNER ITERATIONS.
    ------------------------------------------------

 NO OUTPUT CONTROL FOR STRESS PERIOD   16   TIME STEP   24
 
 SOLVING FOR HEAD 
                                                   Max.-Head-Change                         Max.-Flux-Residual
  Residual-Control   Outer-Iter.   Inner-Iter.     Column Row Layer    Maximum-Head-Change  Column Row Layer    Maximum-Flux-Residual          L2-NORM 
          0                 1           2             2    2     1       0.5814928016E-02       2    2    1         0.3034538650E+00      0.6883918437E+00
          0                 2           2             2    2     1      -0.5656353841E-03       2    2    1        -0.3034548282E-01      0.6937131402E-01
          0                 3           1             2    2     1       0.3851765857E-04       2    2    1         0.2124183804E-02      0.5100405105E-02

    ------------------------------------------------
       NWT REQUIRED            3 OUTER ITERATIONS 
       AND A TOTAL OF          5 INNER ITERATIONS.
    ------------------------------------------------

 NO OUTPUT CONTROL FOR STRESS PERIOD   16   TIME STEP   25
 
 SOLVING FOR HEAD 
                                                   Max.-Head-Change                         Max.-Flux-Residual
  Residual-Control   Outer-Iter.   Inner-Iter.     Column Row Layer    Maximum-Head-Change  Column Row Layer    Maximum-Flux-Residual          L2-NORM 
          0                 1           2             2    2     1       0.5781491385E-02       2    2    1         0.3016958088E+00      0.6775000113E+00
          0                 2           2             2    2     1      -0.5623828880E-03       2    2    1        -0.3016967562E-01      0.6819557198E-01
          0                 3           1             2    2     1       0.3829617594E-04       2    2    1         0.2111877326E-02      0.4978944713E-02

    ------------------------------------------------
       NWT REQUIRED            3 OUTER ITERATIONS 
       AND A TOTAL OF          5 INNER ITERATIONS.
    ------------------------------------------------

 NO OUTPUT CONTROL FOR STRESS PERIOD   16   TIME STEP   26
 
 SOLVING FOR HEAD 
                                                   Max.-Head-Change                         Max.-Flux-Residual
  Residual-Control   Outer-Iter.   Inner-Iter.     Column Row Layer    Maximum-Head-Change  Column Row Layer    Maximum-Flux-Residual          L2-NORM 
          0                 1           2             2    2     1       0.5748518286E-02       2    2    1         0.2999621590E+00      0.6675695003E+00
          0                 2           2             2    2     1      -0.5591754813E-03       2    2    1        -0.2999630911E-01      0.6713185027E-01
          0                 3           1             2    2     1       0.3807776367E-04       2    2    1         0.2099741673E-02      0.4872191839E-02

    ------------------------------------------------
       NWT REQUIRED            3 OUTER ITERATIONS 
       AND A TOTAL OF          5 INNER ITERATIONS.
    ------------------------------------------------

 NO OUTPUT CONTROL FOR STRESS PERIOD   16   TIME STEP   27
 
 SOLVING FOR HEAD 
                                                   Max.-Head-Change                         Max.-Flux-Residual
  Residual-Control   Outer-Iter.   Inner-Iter.     Column Row Layer    Maximum-Head-Change  Column Row Layer    Maximum-Flux-Residual          L2-NORM 
          0                 1           2             2    2     1       0.5716001341E-02       2    2    1         0.2982525430E+00      0.6584935307E+00
          0                 2           2             2    2     1      -0.5560124470E-03       2    2    1        -0.2982534604E-01      0.6616908983E-01
          0                 3           1             2    2     1       0.3786237324E-04       2    2    1         0.2087774264E-02      0.4777192536E-02

    ------------------------------------------------
       NWT REQUIRED            3 OUTER ITERATIONS 
       AND A TOTAL OF          5 INNER ITERATIONS.
    ------------------------------------------------

 NO OUTPUT CONTROL FOR STRESS PERIOD   16   TIME STEP   28
 
 SOLVING FOR HEAD 
                                                   Max.-Head-Change                         Max.-Flux-Residual
  Residual-Control   Outer-Iter.   Inner-Iter.     Column Row Layer    Maximum-Head-Change  Column Row Layer    Maximum-Flux-Residual          L2-NORM 
          0                 1           2             2    2     1       0.5683933617E-02       2    2    1         0.2965665779E+00      0.6501831529E+00
          0                 2           2             2    2     1      -0.5528931094E-03       2    2    1        -0.2965674805E-01      0.6528678308E-01
          0                 3           1             2    2     1       0.3764995780E-04       2    2    1         0.2075972403E-02      0.4692911245E-02

    ------------------------------------------------
       NWT REQUIRED            3 OUTER ITERATIONS 
       AND A TOTAL OF          5 INNER ITERATIONS.
    ------------------------------------------------

 NO OUTPUT CONTROL FOR STRESS PERIOD   16   TIME STEP   29
 
 SOLVING FOR HEAD 
                                                   Max.-Head-Change                         Max.-Flux-Residual
  Residual-Control   Outer-Iter.   Inner-Iter.     Column Row Layer    Maximum-Head-Change  Column Row Layer    Maximum-Flux-Residual          L2-NORM 
          0                 1           2             2    2     1       0.4947594965E-02       2    2    1         0.2580624550E+00      0.5698905645E+00
          0                 2           2             2    2     1      -0.4812670752E-03       2    2    1        -0.2580631222E-01      0.5793945089E-01
          0                 3           1             2    2     1       0.3277249395E-04       2    2    1         0.1806442010E-02      0.4496966475E-02

    ------------------------------------------------
       NWT REQUIRED            3 OUTER ITERATIONS 
       AND A TOTAL OF          5 INNER ITERATIONS.
    ------------------------------------------------

 NO OUTPUT CONTROL FOR STRESS PERIOD   16   TIME STEP   30



 STREAM LISTING     PERIOD     16   STEP       30

 LAYER ROW COL. STREAM  RCH.  FLOW INTO     FLOW TO   FLOW OUT OF   OVRLND.     DIRECT     STREAM       STREAM     STREAM     STREAM   STREAMBED  STREAMBED
                SEG.NO.  NO.  STRM. RCH.    AQUIFER    STRM. RCH.    RUNOFF     PRECIP       ET          HEAD       DEPTH      WIDTH   CONDCTNC.   GRADIENT

   1    1    1     1     1    6.6341E+01  3.9373E-01   6.5947E+01  0.000E+00  0.000E+00  0.000E+00  1.09465E+03  1.601E+00  1.902E+01  8.558E-02  1.534E+00
   1    2    2     1     2    6.5947E+01  6.0983E-01   6.5338E+01  0.000E+00  0.000E+00  0.000E+00  1.08965E+03  1.595E+00  1.896E+01  1.327E-01  1.532E+00
   1    3    3     1     3    6.5338E+01  5.2015E-01   6.4817E+01  0.000E+00  0.000E+00  0.000E+00  1.08401E+03  1.588E+00  1.889E+01  1.134E-01  1.529E+00
   1    3    4     1     4    6.4817E+01  4.7905E-01   6.4338E+01  0.000E+00  0.000E+00  0.000E+00  1.07899E+03  1.582E+00  1.884E+01  1.045E-01  1.527E+00
   1    4    5     2     1    6.2338E+01  3.9665E-01   6.1942E+01  0.000E+00  0.000E+00  0.000E+00  1.07402E+03  2.085E+00  1.200E+01  7.800E-02  1.695E+00
   1    5    6     2     2    6.1942E+01  3.0469E-01   6.1637E+01  0.000E+00  0.000E+00  0.000E+00  1.06859E+03  2.078E+00  1.200E+01  6.000E-02  1.693E+00
   1    6    6     2     3    6.1637E+01  3.0432E-01   6.1333E+01  0.000E+00  0.000E+00  0.000E+00  1.06386E+03  2.072E+00  1.200E+01  6.000E-02  1.691E+00
   1    7    6     2     4    6.1333E+01  3.0396E-01   6.1029E+01  0.000E+00  0.000E+00  0.000E+00  1.05914E+03  2.066E+00  1.200E+01  6.000E-02  1.689E+00
   1    8    6     2     5    6.1029E+01  3.0359E-01   6.0725E+01  0.000E+00  0.000E+00  0.000E+00  1.05442E+03  2.060E+00  1.200E+01  6.000E-02  1.687E+00
   1    3    5     3     1    2.0000E+00  2.8252E-01   1.7175E+00  0.000E+00  0.000E+00  0.000E+00  1.07555E+03  1.909E+00  9.636E+00  7.227E-02  1.955E+00
   1    3    6     3     2    1.7175E+00  2.4905E-01   1.4684E+00  0.000E+00  0.000E+00  0.000E+00  1.07264E+03  1.727E+00  8.909E+00  6.682E-02  1.864E+00
   1    3    7     3     3    1.4684E+00  1.9718E-01   1.2712E+00  0.000E+00  0.000E+00  0.000E+00  1.06987E+03  1.555E+00  8.218E+00  5.547E-02  1.777E+00
   1    4    8     3     4    1.2712E+00  2.2567E-01   1.0456E+00  0.000E+00  0.000E+00  0.000E+00  1.06682E+03  1.364E+00  7.455E+00  6.709E-02  1.682E+00
   1    5    8     3     5    1.0456E+00  1.5790E-01   8.8768E-01  0.000E+00  0.000E+00  0.000E+00  1.06362E+03  1.164E+00  6.655E+00  4.991E-02  1.582E+00
   1    6    8     3     6    8.8768E-01  5.5980E-02   8.3170E-01  0.000E+00  0.000E+00  0.000E+00  1.06158E+03  1.036E+00  6.145E+00  1.844E-02  1.518E+00
   1    5   10     4     1    1.0000E+01  9.0919E-02   9.9091E+00  0.000E+00  0.000E+00  0.000E+00  1.07836E+03  6.368E-01  1.000E+01  2.500E-02  1.212E+00
   1    5    9     4     2    9.9091E+00  1.8158E-01   9.7275E+00  0.000E+00  0.000E+00  0.000E+00  1.07154E+03  6.315E-01  1.000E+01  5.000E-02  1.211E+00
   1    6    8     4     3    9.7275E+00  1.2689E-01   9.6006E+00  0.000E+00  0.000E+00  0.000E+00  1.06381E+03  6.256E-01  1.000E+01  3.500E-02  1.209E+00
   1    6    8     5     1    1.0432E+01  2.2686E-01   1.0205E+01  0.000E+00  0.000E+00  0.000E+00  1.05868E+03  6.790E-01  1.542E+01  6.166E-02  1.226E+00
   1    7    7     5     2    1.0205E+01  2.7894E-01   9.9265E+00  0.000E+00  0.000E+00  0.000E+00  1.05417E+03  6.732E-01  1.519E+01  7.594E-02  1.224E+00
   1    8    7     5     3    9.9265E+00  1.9221E-01   9.7343E+00  0.000E+00  0.000E+00  0.000E+00  1.04992E+03  6.676E-01  1.497E+01  5.241E-02  1.223E+00
   1    8    6     5     4    9.7343E+00  1.3577E-01   9.5985E+00  0.000E+00  0.000E+00  0.000E+00  1.04691E+03  6.637E-01  1.482E+01  3.706E-02  1.221E+00
   1    9    6     6     1    7.0324E+01  3.1608E-01   7.0008E+01  0.000E+00  0.000E+00  0.000E+00  1.04500E+03  2.268E+00  1.200E+01  6.000E-02  1.756E+00
   1   10    7     6     2    7.0008E+01  3.1571E-01   6.9692E+01  0.000E+00  0.000E+00  0.000E+00  1.04044E+03  2.262E+00  1.200E+01  6.000E-02  1.754E+00
   1   11    7     6     3    6.9692E+01  3.1534E-01   6.9377E+01  0.000E+00  0.000E+00  0.000E+00  1.03589E+03  2.256E+00  1.200E+01  6.000E-02  1.752E+00
   1   12    7     6     4    6.9377E+01  3.1498E-01   6.9062E+01  0.000E+00  0.000E+00  0.000E+00  1.03134E+03  2.250E+00  1.200E+01  6.000E-02  1.750E+00
   1   13    7     6     5    6.9062E+01  2.4288E-02   6.9037E+01  0.000E+00  0.000E+00  0.000E+00  1.02816E+03  2.246E+00  1.200E+01  2.400E-02  3.373E-01
   1   14    9     7     1    1.5000E+02  1.3363E+00   1.4866E+02  0.000E+00  0.000E+00  0.000E+00  1.03987E+03  2.288E+00  5.529E+01  5.593E-01  7.964E-01
   1   13    8     7     2    1.4866E+02  1.8224E+00   1.4684E+02  0.000E+00  0.000E+00  0.000E+00  1.03478E+03  2.279E+00  5.526E+01  6.148E-01  9.881E-01
   1   13    7     7     3    1.4684E+02  1.4222E+00   1.4542E+02  0.000E+00  0.000E+00  0.000E+00  1.02969E+03  2.271E+00  5.522E+01  5.585E-01  8.489E-01
   1   13    6     8     1    2.1446E+02  1.0480E+00   2.1341E+02  0.000E+00  0.000E+00  0.000E+00  1.02509E+03  3.218E+00  4.666E+01  4.755E-01  7.347E-01
   1   13    5     8     2    2.1341E+02  2.2814E-01   2.1318E+02  0.000E+00  0.000E+00  0.000E+00  1.01884E+03  3.214E+00  4.661E+01  4.750E-01  1.601E-01
   1   13    4     8     3    2.1318E+02 -2.5141E+00   2.1569E+02  0.000E+00  0.000E+00  0.000E+00  1.01260E+03  3.221E+00  4.670E+01  4.759E+00 -1.761E-01
   1   13    3     8     4    2.1569E+02 -3.7338E+00   2.1943E+02  0.000E+00  0.000E+00  0.000E+00  1.00636E+03  3.238E+00  4.696E+01  4.785E+00 -2.601E-01
   1   13    2     8     5    2.1943E+02 -2.5718E+00   2.2200E+02  0.000E+00  0.000E+00  0.000E+00  1.00013E+03  3.256E+00  4.721E+01  4.811E+00 -1.782E-01
   1   13    1     8     6    2.2200E+02 -1.9019E+00   2.2390E+02  0.000E+00  0.000E+00  0.000E+00  9.95143E+02  3.268E+00  4.739E+01  2.897E+00 -2.188E-01
   1    8    6     9     1    0.0000E+00  0.0000E+00   0.0000E+00  0.000E+00  0.000E+00  0.000E+00  1.07875E+03  0.000E+00  4.000E+00  0.000E+00  1.000E+00
   1    8    5     9     2    0.0000E+00  0.0000E+00   0.0000E+00  0.000E+00  0.000E+00  0.000E+00  1.07825E+03  0.000E+00  4.000E+00  0.000E+00  1.000E+00





UNSATURATED ZONE PACKAGE VOLUMETRIC BUDGET FOR  TIME STEP    30 STRESS PERIOD   16
  ------------------------------------------------------------------------------



     CUMULATIVE VOLUMES      L**3       RATES FOR THIS TIME STEP      L**3/T
     ------------------                 ------------------------

           IN:                                      IN:
           ---                                      ---
        INFILTRATION =   574694063.8386          INFILTRATION =           4.4075

          OUT:                                     OUT:
          ----                                     ----
              UZF ET =   503880287.8220                UZF ET =           0.7250
        UZF RECHARGE =      654072.9065          UZF RECHARGE =           0.0336

            IN - OUT =    70159703.1101              IN - OUT =           3.6489

          STORAGE:                                 STORAGE:
          --------                                 --------
      STORAGE CHANGE =    70160294.7088        STORAGE CHANGE =           3.6489

 PERCENT DISCREPANCY IS DIFFERENCE BETWEEN IN-OUT MINUS CHANGE IN STORAGE
 DIVIDED BY THE AVERAGE OF IN AND OUT TIMES 100

 PERCENT DISCREPANCY =          -0.00     PERCENT DISCREPANCY =           0.00






1
  VOLUMETRIC BUDGET FOR ENTIRE MODEL AT END OF TIME STEP   30, STRESS PERIOD  16
  ------------------------------------------------------------------------------

     CUMULATIVE VOLUMES      L**3       RATES FOR THIS TIME STEP      L**3/T
     ------------------                 ------------------------

           IN:                                      IN:
           ---                                      ---
               AG WELLS  =    44426692.0000                 AG WELLS  =           0.0000
      DIVERSION SEGMENTS =   356311200.0000        DIVERSION SEGMENTS =           0.0000
           GW IRRIGATION =           0.0000             GW IRRIGATION =           0.0000
           SW IRRIGATION =           0.0000             SW IRRIGATION =           0.0000
        SYSTEM LOSSES GW =           0.0000          SYSTEM LOSSES GW =           0.0000
        SYSTEM LOSSES SW =           0.0000          SYSTEM LOSSES SW =           0.0000

                TOTAL IN =   400737888.0000                  TOTAL IN =           0.0000

          OUT:                                     OUT:
          ----                                     ----
               AG WELLS  =           0.0000                 AG WELLS  =           0.0000
      DIVERSION SEGMENTS =           0.0000        DIVERSION SEGMENTS =           0.0000
           GW IRRIGATION =    44426692.0000             GW IRRIGATION =           0.0000
           SW IRRIGATION =   356318336.0000             SW IRRIGATION =           0.0000
        SYSTEM LOSSES GW =           0.0000          SYSTEM LOSSES GW =           0.0000
        SYSTEM LOSSES SW =           0.0000          SYSTEM LOSSES SW =           0.0000

               TOTAL OUT =   400745024.0000                 TOTAL OUT =           0.0000

                IN - OUT =       -7136.0000                  IN - OUT =           0.0000

     PERCENT DISCREPANCY =          -0.00         PERCENT DISCREPANCY =           0.00



1
  VOLUMETRIC BUDGET FOR ENTIRE MODEL AT END OF TIME STEP   30, STRESS PERIOD  16
  ------------------------------------------------------------------------------

     CUMULATIVE VOLUMES      L**3       RATES FOR THIS TIME STEP      L**3/T
     ------------------                 ------------------------

           IN:                                      IN:
           ---                                      ---
             STORAGE     =    86634976.0000               STORAGE     =           0.6379
       CONSTANT HEAD     =           0.0000         CONSTANT HEAD     =           0.0000
     HEAD DEP BOUNDS     =    11298074.0000       HEAD DEP BOUNDS     =           0.2858
      STREAM LEAKAGE     =   472748384.0000        STREAM LEAKAGE     =          13.1608
        UZF RECHARGE     =      654073.0000          UZF RECHARGE     =       3.3582E-02
               GW ET     =           0.0000                 GW ET     =           0.0000
     SURFACE LEAKAGE     =           0.0000       SURFACE LEAKAGE     =           0.0000
           AG WELLS      =           0.0000             AG WELLS      =           0.0000

                TOTAL IN =   571335488.0000                  TOTAL IN =          14.1181

          OUT:                                     OUT:
          ----                                     ----
             STORAGE     =    88805880.0000               STORAGE     =           3.1012
       CONSTANT HEAD     =           0.0000         CONSTANT HEAD     =           0.0000
     HEAD DEP BOUNDS     =    11495237.0000       HEAD DEP BOUNDS     =           0.2964
      STREAM LEAKAGE     =   425092608.0000        STREAM LEAKAGE     =          10.7216
        UZF RECHARGE     =           0.0000          UZF RECHARGE     =           0.0000
               GW ET     =     1517575.6250                 GW ET     =       2.8203E-12
     SURFACE LEAKAGE     =           0.0000       SURFACE LEAKAGE     =           0.0000
           AG WELLS      =    44426692.0000             AG WELLS      =           0.0000

               TOTAL OUT =   571337984.0000                 TOTAL OUT =          14.1192

                IN - OUT =       -2496.0000                  IN - OUT =      -1.1806E-03

     PERCENT DISCREPANCY =          -0.00         PERCENT DISCREPANCY =          -0.01






         TIME SUMMARY AT END OF TIME STEP   30 IN STRESS PERIOD   16
                    SECONDS     MINUTES      HOURS       DAYS        YEARS
                    -----------------------------------------------------------
   TIME STEP LENGTH  87667.      1461.1      24.352      1.0147     2.77799E-03
 STRESS PERIOD TIME 2.63000E+06  43833.      730.56      30.440     8.33397E-02
         TOTAL TIME 3.95364E+07 6.58940E+05  10982.      457.60      1.2528    
1
1
                            STRESS PERIOD NO.   17, LENGTH =   2630000.    
                            -----------------------------------------------

                              NUMBER OF TIME STEPS =    30

                               MULTIPLIER FOR DELT =     1.000

                            INITIAL TIME STEP SIZE =   87666.66    

 REUSING NON-PARAMETER GHB CELLS FROM LAST STRESS PERIOD

      2 GHB CELLS

 REUSING STREAM SEGMENT DATA FROM LAST STRESS PERIOD



            AREAL INFILTRATION RATE
 READING ON UNIT   19 WITH FORMAT: (10F4.0)            

            1           2           3           4           5           6           7           8           9          10
 ........................................................................................................................
   1   1.2000E-09   0.000       0.000       0.000       0.000       0.000       0.000       0.000       0.000       0.000    
   2   2.1000E-09  2.0000E-09  8.0000E-10  8.5000E-09   0.000       0.000       0.000       0.000       0.000       0.000    
   3   5.0000E-10  1.1000E-09  8.8000E-09  5.5000E-09   0.000       0.000       0.000       0.000       0.000       0.000    
   4   8.5000E-09  1.1000E-09  1.1000E-09  1.1000E-09  2.0000E-09   0.000       0.000       0.000       0.000       0.000    
   5   8.5000E-09  1.1000E-09  1.1000E-09  1.1000E-09  1.1000E-09   0.000       0.000       0.000       0.000       0.000    
   6   8.5000E-09  5.2000E-09  2.1000E-09  1.1000E-09  1.5000E-09   0.000       0.000       0.000       0.000       0.000    
   7   8.5000E-09  5.2000E-09  2.1000E-09  1.2000E-09  2.0000E-09   0.000       0.000       0.000       0.000       0.000    
   8   5.0000E-10  5.2000E-09  2.1000E-09  1.2000E-09  5.0000E-09   0.000       0.000       0.000       0.000       0.000    
   9   5.0000E-10  5.2000E-09  2.1000E-09  1.2000E-09  5.0000E-09   0.000       0.000       0.000       0.000       0.000    
  10   5.0000E-10  5.2000E-09  2.1000E-09  1.2000E-09  5.8000E-09   0.000       0.000       0.000       0.000       0.000    
  11   1.0000E-10  1.1000E-09  1.1000E-09  1.2000E-09  5.0000E-09   0.000       0.000       0.000       0.000       0.000    
  12   1.1000E-09  1.1000E-09  1.1000E-09  1.1000E-09  2.0000E-09   0.000       0.000       0.000       0.000       0.000    
  13   1.1000E-09  2.2000E-09  2.2000E-09  2.1000E-09  1.0000E-09   0.000       0.000       0.000       0.000       0.000    
  14   2.0000E-10  5.5000E-09  5.5000E-09  5.2000E-09  1.0000E-09   0.000       0.000       0.000       0.000       0.000    
  15    0.000      8.8000E-09  8.8000E-09   0.000       0.000       0.000       0.000       0.000       0.000       0.000    

                  ET RATE =  2.500000E-08

 USING ET EXTINCTION DEPTH FROM PREVIOUS STRESS PERIOD. CURRENT PERIOD IS:      17

 USING EXTINCTION WATER CONTENT FROM PREVIOUS STRESS PERIOD. CURRENT PERIOD IS:      17

 USING AIR ENTRY PRESSURE FROM PREVIOUS STRESS PERIOD. CURRENT PERIOD IS:      17

 USING ROOT PRESSURE HEAD FROM PREVIOUS STRESS PERIOD. CURRENT PERIOD IS:      17

 USING ROOT ACTIVITY FROM PREVIOUS STRESS PERIOD. CURRENT PERIOD IS:      17

 PROCESSING AG STRESS PERIOD DATA

 READING AG STRESS PERIOD DATA

 READING IRRIGATION SEGMENT

 READING IRRIGATION WELL

 READING SUPPLEMENTAL WELL

 END PROCESSING AG STRESS PERIOD DATA OPTIONS
 
 SOLVING FOR HEAD 
                                                   Max.-Head-Change                         Max.-Flux-Residual
  Residual-Control   Outer-Iter.   Inner-Iter.     Column Row Layer    Maximum-Head-Change  Column Row Layer    Maximum-Flux-Residual          L2-NORM 
          0                 1           2             4   13     1      -0.5246674080E-02       4   13    1        -0.3045821611E+00      0.6575985505E+00
          0                 2           2             2   13     1       0.3876578489E-03       2   13    1         0.2291254406E-01      0.5490110740E-01
          0                 3           1             3   13     1       0.2781532176E-04       3   13    1         0.1651698560E-02      0.4088238489E-02

    ------------------------------------------------
       NWT REQUIRED            3 OUTER ITERATIONS 
       AND A TOTAL OF          5 INNER ITERATIONS.
    ------------------------------------------------

 NO OUTPUT CONTROL FOR STRESS PERIOD   17   TIME STEP    1
 
 SOLVING FOR HEAD 
                                                   Max.-Head-Change                         Max.-Flux-Residual
  Residual-Control   Outer-Iter.   Inner-Iter.     Column Row Layer    Maximum-Head-Change  Column Row Layer    Maximum-Flux-Residual          L2-NORM 
          0                 1           2             4   13     1      -0.5329122243E-02       4   13    1        -0.3090774061E+00      0.6571142148E+00
          0                 2           2             4   13     1       0.5106538247E-03       4   13    1         0.3045460976E-01      0.6462047511E-01
          0                 3           1             4   13     1      -0.3438435254E-04       4   13    1        -0.2108533739E-02      0.4446915690E-02

    ------------------------------------------------
       NWT REQUIRED            3 OUTER ITERATIONS 
       AND A TOTAL OF          5 INNER ITERATIONS.
    ------------------------------------------------

 NO OUTPUT CONTROL FOR STRESS PERIOD   17   TIME STEP    2
 
 SOLVING FOR HEAD 
                                                   Max.-Head-Change                         Max.-Flux-Residual
  Residual-Control   Outer-Iter.   Inner-Iter.     Column Row Layer    Maximum-Head-Change  Column Row Layer    Maximum-Flux-Residual          L2-NORM 
          0                 1           2             4   13     1      -0.4780164918E-02       4   13    1        -0.2772512240E+00      0.6242744304E+00
          0                 2           2             2    2     1      -0.3742245520E-03       2    2    1        -0.2005174321E-01      0.5597419819E-01
          0                 3           2             4   13     1      -0.1742359032E-03       4   13    1        -0.1004393648E-01      0.1708180033E-01
          0                 4           1             4   13     1       0.1592134035E-04       4   13    1         0.9438186789E-03      0.1544093883E-02

    ------------------------------------------------
       NWT REQUIRED            4 OUTER ITERATIONS 
       AND A TOTAL OF          7 INNER ITERATIONS.
    ------------------------------------------------

 NO OUTPUT CONTROL FOR STRESS PERIOD   17   TIME STEP    3
 
 SOLVING FOR HEAD 
                                                   Max.-Head-Change                         Max.-Flux-Residual
  Residual-Control   Outer-Iter.   Inner-Iter.     Column Row Layer    Maximum-Head-Change  Column Row Layer    Maximum-Flux-Residual          L2-NORM 
          0                 1           2             4   13     1      -0.4202888967E-02       4   13    1        -0.2437915385E+00      0.5907827892E+00
          0                 2           2             2    2     1      -0.3725273703E-03       2    2    1        -0.1996010048E-01      0.5743587992E-01
          0                 3           2             4   13     1      -0.6390227336E-03       4   13    1        -0.3679579695E-01      0.6364259519E-01
          0                 4           1             4   13     1       0.5769123232E-04       4   13    1         0.3417559145E-02      0.5744563550E-02

    ------------------------------------------------
       NWT REQUIRED            4 OUTER ITERATIONS 
       AND A TOTAL OF          7 INNER ITERATIONS.
    ------------------------------------------------

 NO OUTPUT CONTROL FOR STRESS PERIOD   17   TIME STEP    4
 
 SOLVING FOR HEAD 
                                                   Max.-Head-Change                         Max.-Flux-Residual
  Residual-Control   Outer-Iter.   Inner-Iter.     Column Row Layer    Maximum-Head-Change  Column Row Layer    Maximum-Flux-Residual          L2-NORM 
          0                 1           2             3   13     1      -0.5942791369E-02       3   13    1        -0.3464648729E+00      0.6636598313E+00
          0                 2           2             2   13     1      -0.3819489658E-03       2   13    1        -0.2169891356E-01      0.5581911238E-01
          0                 3           2             4   13     1      -0.6411867731E-03       4   13    1        -0.3745601186E-01      0.6446601501E-01
          0                 4           1             4   13     1       0.5844229968E-04       4   13    1         0.3512200806E-02      0.5877375877E-02

    ------------------------------------------------
       NWT REQUIRED            4 OUTER ITERATIONS 
       AND A TOTAL OF          7 INNER ITERATIONS.
    ------------------------------------------------

 NO OUTPUT CONTROL FOR STRESS PERIOD   17   TIME STEP    5
 
 SOLVING FOR HEAD 
                                                   Max.-Head-Change                         Max.-Flux-Residual
  Residual-Control   Outer-Iter.   Inner-Iter.     Column Row Layer    Maximum-Head-Change  Column Row Layer    Maximum-Flux-Residual          L2-NORM 
          0                 1           2             3   13     1      -0.5189312116E-02       3   13    1        -0.3023939259E+00      0.6246414479E+00
          0                 2           2             2   13     1      -0.4115760300E-03       2   13    1        -0.2335503038E-01      0.5686321431E-01
          0                 3           2             4   13     1      -0.6401139838E-03       4   13    1        -0.3751654514E-01      0.6450506371E-01
          0                 4           1             4   13     1       0.6167381510E-04       4   13    1         0.3718473046E-02      0.6229086980E-02

    ------------------------------------------------
       NWT REQUIRED            4 OUTER ITERATIONS 
       AND A TOTAL OF          7 INNER ITERATIONS.
    ------------------------------------------------

 NO OUTPUT CONTROL FOR STRESS PERIOD   17   TIME STEP    6
 
 SOLVING FOR HEAD 
                                                   Max.-Head-Change                         Max.-Flux-Residual
  Residual-Control   Outer-Iter.   Inner-Iter.     Column Row Layer    Maximum-Head-Change  Column Row Layer    Maximum-Flux-Residual          L2-NORM 
          0                 1           2             3   13     1      -0.4515534920E-02       3   13    1        -0.2631944943E+00      0.5820934102E+00
          0                 2           2             2   13     1      -0.4387319127E-03       2   13    1        -0.2487399659E-01      0.5872290888E-01
          0                 3           2             4   13     1      -0.6209673635E-03       4   13    1        -0.3639318889E-01      0.6274972936E-01
          0                 4           1             4   13     1       0.4948972904E-04       4   13    1         0.2984286182E-02      0.4977870704E-02

    ------------------------------------------------
       NWT REQUIRED            4 OUTER ITERATIONS 
       AND A TOTAL OF          7 INNER ITERATIONS.
    ------------------------------------------------

 NO OUTPUT CONTROL FOR STRESS PERIOD   17   TIME STEP    7
 
 SOLVING FOR HEAD 
                                                   Max.-Head-Change                         Max.-Flux-Residual
  Residual-Control   Outer-Iter.   Inner-Iter.     Column Row Layer    Maximum-Head-Change  Column Row Layer    Maximum-Flux-Residual          L2-NORM 
          0                 1           2             3   13     1      -0.3912788926E-02       3   13    1        -0.2281280934E+00      0.5468429682E+00
          0                 2           2             2   13     1      -0.4604022999E-03       2   13    1        -0.2608521087E-01      0.6061048947E-01
          0                 3           2             4   13     1      -0.6352124059E-03       4   13    1        -0.3722643835E-01      0.6436503261E-01
          0                 4           1             4   13     1       0.6118453551E-04       4   13    1         0.3688774423E-02      0.6212419978E-02

    ------------------------------------------------
       NWT REQUIRED            4 OUTER ITERATIONS 
       AND A TOTAL OF          7 INNER ITERATIONS.
    ------------------------------------------------

 NO OUTPUT CONTROL FOR STRESS PERIOD   17   TIME STEP    8
 
 SOLVING FOR HEAD 
                                                   Max.-Head-Change                         Max.-Flux-Residual
  Residual-Control   Outer-Iter.   Inner-Iter.     Column Row Layer    Maximum-Head-Change  Column Row Layer    Maximum-Flux-Residual          L2-NORM 
          0                 1           2             1    1     1       0.3809152353E-02       1    1    1         0.1977305469E+00      0.5179345938E+00
          0                 2           2             2   13     1      -0.4878617466E-03       2   13    1        -0.2762541758E-01      0.6311770333E-01
          0                 3           2             4   13     1      -0.6196265276E-03       4   13    1        -0.3631210229E-01      0.6291945224E-01
          0                 4           1             4   13     1       0.5261972046E-04       4   13    1         0.3172667186E-02      0.5333561098E-02

    ------------------------------------------------
       NWT REQUIRED            4 OUTER ITERATIONS 
       AND A TOTAL OF          7 INNER ITERATIONS.
    ------------------------------------------------

 NO OUTPUT CONTROL FOR STRESS PERIOD   17   TIME STEP    9
 
 SOLVING FOR HEAD 
                                                   Max.-Head-Change                         Max.-Flux-Residual
  Residual-Control   Outer-Iter.   Inner-Iter.     Column Row Layer    Maximum-Head-Change  Column Row Layer    Maximum-Flux-Residual          L2-NORM 
          0                 1           2             1    1     1       0.3805386502E-02       1    1    1         0.1975345970E+00      0.4945177554E+00
          0                 2           2             2   13     1      -0.5085388926E-03       2   13    1        -0.2878404660E-01      0.6526731111E-01
          0                 3           2             4   13     1      -0.6112432241E-03       4   13    1        -0.3582000158E-01      0.6218579482E-01
          0                 4           1             4   13     1       0.4918070606E-04       4   13    1         0.2965405494E-02      0.4986736686E-02

    ------------------------------------------------
       NWT REQUIRED            4 OUTER ITERATIONS 
       AND A TOTAL OF          7 INNER ITERATIONS.
    ------------------------------------------------

 NO OUTPUT CONTROL FOR STRESS PERIOD   17   TIME STEP   10
 
 SOLVING FOR HEAD 
                                                   Max.-Head-Change                         Max.-Flux-Residual
  Residual-Control   Outer-Iter.   Inner-Iter.     Column Row Layer    Maximum-Head-Change  Column Row Layer    Maximum-Flux-Residual          L2-NORM 
          0                 1           2             1    1     1       0.3801634061E-02       1    1    1         0.1973393437E+00      0.4757974656E+00
          0                 2           2             2   13     1      -0.5292558426E-03       2   13    1        -0.2994637677E-01      0.6746321313E-01
          0                 3           2             4   13     1      -0.6122020892E-03       4   13    1        -0.3587531940E-01      0.6238899460E-01
          0                 4           1             4   13     1       0.5185647900E-04       4   13    1         0.3126534635E-02      0.5276924338E-02

    ------------------------------------------------
       NWT REQUIRED            4 OUTER ITERATIONS 
       AND A TOTAL OF          7 INNER ITERATIONS.
    ------------------------------------------------

 NO OUTPUT CONTROL FOR STRESS PERIOD   17   TIME STEP   11
 
 SOLVING FOR HEAD 
                                                   Max.-Head-Change                         Max.-Flux-Residual
  Residual-Control   Outer-Iter.   Inner-Iter.     Column Row Layer    Maximum-Head-Change  Column Row Layer    Maximum-Flux-Residual          L2-NORM 
          0                 1           2             1    1     1       0.3797917482E-02       1    1    1         0.1971459553E+00      0.4610192070E+00
          0                 2           2             2   13     1      -0.5445719367E-03       2   13    1        -0.3080474307E-01      0.6923533408E-01
          0                 3           2             4   13     1      -0.6243636026E-03       4   13    1        -0.3658723524E-01      0.6370885532E-01
          0                 4           1             4   13     1       0.6015320689E-04       4   13    1         0.3626381775E-02      0.6147374917E-02

    ------------------------------------------------
       NWT REQUIRED            4 OUTER ITERATIONS 
       AND A TOTAL OF          7 INNER ITERATIONS.
    ------------------------------------------------

 NO OUTPUT CONTROL FOR STRESS PERIOD   17   TIME STEP   12
 
 SOLVING FOR HEAD 
                                                   Max.-Head-Change                         Max.-Flux-Residual
  Residual-Control   Outer-Iter.   Inner-Iter.     Column Row Layer    Maximum-Head-Change  Column Row Layer    Maximum-Flux-Residual          L2-NORM 
          0                 1           2             1    1     1       0.3794191606E-02       1    1    1         0.1969520871E+00      0.4494749259E+00
          0                 2           2             2   13     1      -0.5645376665E-03       2   13    1        -0.3192690134E-01      0.7135995840E-01
          0                 3           2             4   13     1      -0.6150951601E-03       4   13    1        -0.3604359794E-01      0.6283992659E-01
          0                 4           1             4   13     1       0.5785813547E-04       4   13    1         0.3488012238E-02      0.5919181745E-02

    ------------------------------------------------
       NWT REQUIRED            4 OUTER ITERATIONS 
       AND A TOTAL OF          7 INNER ITERATIONS.
    ------------------------------------------------

 NO OUTPUT CONTROL FOR STRESS PERIOD   17   TIME STEP   13
 
 SOLVING FOR HEAD 
                                                   Max.-Head-Change                         Max.-Flux-Residual
  Residual-Control   Outer-Iter.   Inner-Iter.     Column Row Layer    Maximum-Head-Change  Column Row Layer    Maximum-Flux-Residual          L2-NORM 
          0                 1           2             1    1     1       0.3790478941E-02       1    1    1         0.1967589065E+00      0.4406216565E+00
          0                 2           2             2   13     1      -0.5825189041E-03       4   13    1        -0.3375492676E-01      0.7329335017E-01
          0                 3           2             4   13     1      -0.6051924632E-03       4   13    1        -0.3546293991E-01      0.6189239480E-01
          0                 4           1             4   13     1       0.5499988165E-04       4   13    1         0.3315780983E-02      0.5626383893E-02

    ------------------------------------------------
       NWT REQUIRED            4 OUTER ITERATIONS 
       AND A TOTAL OF          7 INNER ITERATIONS.
    ------------------------------------------------

 NO OUTPUT CONTROL FOR STRESS PERIOD   17   TIME STEP   14
 
 SOLVING FOR HEAD 
                                                   Max.-Head-Change                         Max.-Flux-Residual
  Residual-Control   Outer-Iter.   Inner-Iter.     Column Row Layer    Maximum-Head-Change  Column Row Layer    Maximum-Flux-Residual          L2-NORM 
          0                 1           2             1    1     1       0.3786779421E-02       1    1    1         0.1965664109E+00      0.4339225118E+00
          0                 2           2             4   13     1      -0.6041476012E-03       4   13    1        -0.3537216025E-01      0.7503134439E-01
          0                 3           2             4   13     1      -0.5936192082E-03       4   13    1        -0.3478448993E-01      0.6076665402E-01
          0                 4           1             4   13     1       0.4934339178E-04       4   13    1         0.2974952751E-02      0.5042402822E-02

    ------------------------------------------------
       NWT REQUIRED            4 OUTER ITERATIONS 
       AND A TOTAL OF          7 INNER ITERATIONS.
    ------------------------------------------------

 NO OUTPUT CONTROL FOR STRESS PERIOD   17   TIME STEP   15
 
 SOLVING FOR HEAD 
                                                   Max.-Head-Change                         Max.-Flux-Residual
  Residual-Control   Outer-Iter.   Inner-Iter.     Column Row Layer    Maximum-Head-Change  Column Row Layer    Maximum-Flux-Residual          L2-NORM 
          0                 1           2             1    1     1       0.3783115510E-02       1    1    1         0.1963757669E+00      0.4289480834E+00
          0                 2           2             4   13     1      -0.6236226040E-03       4   13    1        -0.3651708408E-01      0.7621713935E-01
          0                 3           2             4   13     1      -0.6102934848E-03       4   13    1        -0.3576111092E-01      0.6250666459E-01
          0                 4           1             4   13     1       0.5811178496E-04       4   13    1         0.3503216380E-02      0.5960077335E-02

    ------------------------------------------------
       NWT REQUIRED            4 OUTER ITERATIONS 
       AND A TOTAL OF          7 INNER ITERATIONS.
    ------------------------------------------------

 NO OUTPUT CONTROL FOR STRESS PERIOD   17   TIME STEP   16
 
 SOLVING FOR HEAD 
                                                   Max.-Head-Change                         Max.-Flux-Residual
  Residual-Control   Outer-Iter.   Inner-Iter.     Column Row Layer    Maximum-Head-Change  Column Row Layer    Maximum-Flux-Residual          L2-NORM 
          0                 1           2             1    1     1       0.3779442049E-02       1    1    1         0.1961846291E+00      0.4253026607E+00
          0                 2           2             4   13     1      -0.6460702698E-03       4   13    1        -0.3783552504E-01      0.7775252773E-01
          0                 3           2             4   13     1      -0.6058667948E-03       4   13    1        -0.3550146420E-01      0.6209216651E-01
          0                 4           1             4   13     1       0.5685523904E-04       4   13    1         0.3427485975E-02      0.5834074842E-02

    ------------------------------------------------
       NWT REQUIRED            4 OUTER ITERATIONS 
       AND A TOTAL OF          7 INNER ITERATIONS.
    ------------------------------------------------

 NO OUTPUT CONTROL FOR STRESS PERIOD   17   TIME STEP   17
 
 SOLVING FOR HEAD 
                                                   Max.-Head-Change                         Max.-Flux-Residual
  Residual-Control   Outer-Iter.   Inner-Iter.     Column Row Layer    Maximum-Head-Change  Column Row Layer    Maximum-Flux-Residual          L2-NORM 
          0                 1           2             1    1     1       0.3775781541E-02       1    1    1         0.1959941661E+00      0.4227076778E+00
          0                 2           2             4   13     1      -0.6657856348E-03       4   13    1        -0.3899324593E-01      0.7913998210E-01
          0                 3           2             4   13     1      -0.6011664239E-03       4   13    1        -0.3522585492E-01      0.6164207063E-01
          0                 4           1             4   13     1       0.5531737611E-04       4   13    1         0.3334816258E-02      0.5675070345E-02

    ------------------------------------------------
       NWT REQUIRED            4 OUTER ITERATIONS 
       AND A TOTAL OF          7 INNER ITERATIONS.
    ------------------------------------------------

 NO OUTPUT CONTROL FOR STRESS PERIOD   17   TIME STEP   18
 
 SOLVING FOR HEAD 
                                                   Max.-Head-Change                         Max.-Flux-Residual
  Residual-Control   Outer-Iter.   Inner-Iter.     Column Row Layer    Maximum-Head-Change  Column Row Layer    Maximum-Flux-Residual          L2-NORM 
          0                 1           2             1    1     1       0.3772133904E-02       1    1    1         0.1958043748E+00      0.4209279222E+00
          0                 2           2             4   13     1      -0.6644811764E-03       4   13    1        -0.4001045317E-01      0.8039222583E-01
          0                 3           2             4   13     1      -0.5977789930E-03       4   13    1        -0.3602194861E-01      0.6163379083E-01
          0                 4           1             2   13     1       0.5061104072E-04       2   13    1         0.2939237634E-02      0.4951684246E-02

    ------------------------------------------------
       NWT REQUIRED            4 OUTER ITERATIONS 
       AND A TOTAL OF          7 INNER ITERATIONS.
    ------------------------------------------------

 NO OUTPUT CONTROL FOR STRESS PERIOD   17   TIME STEP   19
 
 SOLVING FOR HEAD 
                                                   Max.-Head-Change                         Max.-Flux-Residual
  Residual-Control   Outer-Iter.   Inner-Iter.     Column Row Layer    Maximum-Head-Change  Column Row Layer    Maximum-Flux-Residual          L2-NORM 
          0                 1           2             1    1     1       0.3768499094E-02       1    1    1         0.1956152508E+00      0.4197516319E+00
          0                 2           2             4   13     1      -0.6766111498E-03       4   13    1        -0.4074272541E-01      0.8127559664E-01
          0                 3           2             4   13     1      -0.6025335488E-03       4   13    1        -0.3630844475E-01      0.6212459640E-01
          0                 4           1             2   13     1       0.5172331345E-04       2   13    1         0.3003837365E-02      0.5065111329E-02

    ------------------------------------------------
       NWT REQUIRED            4 OUTER ITERATIONS 
       AND A TOTAL OF          7 INNER ITERATIONS.
    ------------------------------------------------

 NO OUTPUT CONTROL FOR STRESS PERIOD   17   TIME STEP   20
 
 SOLVING FOR HEAD 
                                                   Max.-Head-Change                         Max.-Flux-Residual
  Residual-Control   Outer-Iter.   Inner-Iter.     Column Row Layer    Maximum-Head-Change  Column Row Layer    Maximum-Flux-Residual          L2-NORM 
          0                 1           2             1    1     1       0.3764877047E-02       1    1    1         0.1954267919E+00      0.4190366850E+00
          0                 2           2             4   13     1      -0.6901165144E-03       4   13    1        -0.4155748271E-01      0.8233194086E-01
          0                 3           2             4   13     1      -0.5942698150E-03       4   13    1        -0.3580055967E-01      0.6238992586E-01
          0                 4           1             4   13     1       0.3514739791E-04       4   13    1         0.2177042765E-02      0.3870102516E-02

    ------------------------------------------------
       NWT REQUIRED            4 OUTER ITERATIONS 
       AND A TOTAL OF          7 INNER ITERATIONS.
    ------------------------------------------------

 NO OUTPUT CONTROL FOR STRESS PERIOD   17   TIME STEP   21
 
 SOLVING FOR HEAD 
                                                   Max.-Head-Change                         Max.-Flux-Residual
  Residual-Control   Outer-Iter.   Inner-Iter.     Column Row Layer    Maximum-Head-Change  Column Row Layer    Maximum-Flux-Residual          L2-NORM 
          0                 1           2             1    1     1       0.3761267727E-02       1    1    1         0.1952389947E+00      0.4186489397E+00
          0                 2           2             4   13     1      -0.7016513983E-03       4   13    1        -0.4225316175E-01      0.8325463489E-01
          0                 3           2             4   13     1      -0.5926382593E-03       4   13    1        -0.3570221965E-01      0.6222576913E-01
          0                 4           1             4   13     1       0.3430968068E-04       4   13    1         0.2125170497E-02      0.3780501474E-02

    ------------------------------------------------
       NWT REQUIRED            4 OUTER ITERATIONS 
       AND A TOTAL OF          7 INNER ITERATIONS.
    ------------------------------------------------

 NO OUTPUT CONTROL FOR STRESS PERIOD   17   TIME STEP   22
 
 SOLVING FOR HEAD 
                                                   Max.-Head-Change                         Max.-Flux-Residual
  Residual-Control   Outer-Iter.   Inner-Iter.     Column Row Layer    Maximum-Head-Change  Column Row Layer    Maximum-Flux-Residual          L2-NORM 
          0                 1           2             1    1     1       0.3757671047E-02       1    1    1         0.1950518575E+00      0.4185122973E+00
          0                 2           2             4   13     1      -0.7117871897E-03       4   13    1        -0.4286441095E-01      0.8407535815E-01
          0                 3           2             4   13     1      -0.5903358421E-03       4   13    1        -0.3556346763E-01      0.6217795420E-01
          0                 4           1             4   13     1       0.3319665875E-04       4   13    1         0.2056233889E-02      0.3483600237E-02

    ------------------------------------------------
       NWT REQUIRED            4 OUTER ITERATIONS 
       AND A TOTAL OF          7 INNER ITERATIONS.
    ------------------------------------------------

 NO OUTPUT CONTROL FOR STRESS PERIOD   17   TIME STEP   23
 
 SOLVING FOR HEAD 
                                                   Max.-Head-Change                         Max.-Flux-Residual
  Residual-Control   Outer-Iter.   Inner-Iter.     Column Row Layer    Maximum-Head-Change  Column Row Layer    Maximum-Flux-Residual          L2-NORM 
          0                 1           2             1    1     1       0.3754086946E-02       1    1    1         0.1948653755E+00      0.4185328468E+00
          0                 2           2             4   13     1      -0.7189179328E-03       4   13    1        -0.4329436812E-01      0.8465406002E-01
          0                 3           2             4   13     1      -0.5870516283E-03       4   13    1        -0.3536564636E-01      0.6183957347E-01
          0                 4           1             4   13     1       0.3283804558E-04       4   13    1         0.2034027735E-02      0.3445761571E-02

    ------------------------------------------------
       NWT REQUIRED            4 OUTER ITERATIONS 
       AND A TOTAL OF          7 INNER ITERATIONS.
    ------------------------------------------------

 NO OUTPUT CONTROL FOR STRESS PERIOD   17   TIME STEP   24
 
 SOLVING FOR HEAD 
                                                   Max.-Head-Change                         Max.-Flux-Residual
  Residual-Control   Outer-Iter.   Inner-Iter.     Column Row Layer    Maximum-Head-Change  Column Row Layer    Maximum-Flux-Residual          L2-NORM 
          0                 1           2             1    1     1       0.3750515404E-02       1    1    1         0.1946795458E+00      0.4186617087E+00
          0                 2           2             4   13     1      -0.7260722586E-03       4   13    1        -0.4372558215E-01      0.8525608596E-01
          0                 3           2             4   13     1      -0.5901970283E-03       4   13    1        -0.3555507064E-01      0.6217148886E-01
          0                 4           1             4   13     1       0.3289732415E-04       4   13    1         0.2037706938E-02      0.3450773579E-02

    ------------------------------------------------
       NWT REQUIRED            4 OUTER ITERATIONS 
       AND A TOTAL OF          7 INNER ITERATIONS.
    ------------------------------------------------

 NO OUTPUT CONTROL FOR STRESS PERIOD   17   TIME STEP   25
 
 SOLVING FOR HEAD 
                                                   Max.-Head-Change                         Max.-Flux-Residual
  Residual-Control   Outer-Iter.   Inner-Iter.     Column Row Layer    Maximum-Head-Change  Column Row Layer    Maximum-Flux-Residual          L2-NORM 
          0                 1           2             1    1     1       0.3746956319E-02       1    1    1         0.1944943673E+00      0.4188640680E+00
          0                 2           2             4   13     1      -0.7337969261E-03       4   13    1        -0.4419102813E-01      0.8592714118E-01
          0                 3           2             4   13     1      -0.5845142786E-03       4   13    1        -0.3521277225E-01      0.6158003815E-01
          0                 4           1             4   13     1       0.3402665124E-04       4   13    1         0.2107635915E-02      0.3573833644E-02

    ------------------------------------------------
       NWT REQUIRED            4 OUTER ITERATIONS 
       AND A TOTAL OF          7 INNER ITERATIONS.
    ------------------------------------------------

 NO OUTPUT CONTROL FOR STRESS PERIOD   17   TIME STEP   26
 
 SOLVING FOR HEAD 
                                                   Max.-Head-Change                         Max.-Flux-Residual
  Residual-Control   Outer-Iter.   Inner-Iter.     Column Row Layer    Maximum-Head-Change  Column Row Layer    Maximum-Flux-Residual          L2-NORM 
          0                 1           2             1    1     1       0.3743409632E-02       1    1    1         0.1943098346E+00      0.4190940212E+00
          0                 2           2             4   13     1      -0.7380919642E-03       4   13    1        -0.4444975209E-01      0.8629897277E-01
          0                 3           2             4   13     1      -0.5878245784E-03       4   13    1        -0.3541215124E-01      0.6192907873E-01
          0                 4           1             4   13     1       0.3343030986E-04       4   13    1         0.2070709801E-02      0.3509075201E-02

    ------------------------------------------------
       NWT REQUIRED            4 OUTER ITERATIONS 
       AND A TOTAL OF          7 INNER ITERATIONS.
    ------------------------------------------------

 NO OUTPUT CONTROL FOR STRESS PERIOD   17   TIME STEP   27
 
 SOLVING FOR HEAD 
                                                   Max.-Head-Change                         Max.-Flux-Residual
  Residual-Control   Outer-Iter.   Inner-Iter.     Column Row Layer    Maximum-Head-Change  Column Row Layer    Maximum-Flux-Residual          L2-NORM 
          0                 1           2             1    1     1       0.3739875308E-02       1    1    1         0.1941259448E+00      0.4193424770E+00
          0                 2           2             4   13     1      -0.7450673330E-03       4   13    1        -0.4486984384E-01      0.8692709657E-01
          0                 3           2             4   13     1      -0.5871625222E-03       4   13    1        -0.3537225087E-01      0.6186456737E-01
          0                 4           1             4   13     1       0.3251806199E-04       4   13    1         0.2014204772E-02      0.3412171785E-02

    ------------------------------------------------
       NWT REQUIRED            4 OUTER ITERATIONS 
       AND A TOTAL OF          7 INNER ITERATIONS.
    ------------------------------------------------

 NO OUTPUT CONTROL FOR STRESS PERIOD   17   TIME STEP   28
 
 SOLVING FOR HEAD 
                                                   Max.-Head-Change                         Max.-Flux-Residual
  Residual-Control   Outer-Iter.   Inner-Iter.     Column Row Layer    Maximum-Head-Change  Column Row Layer    Maximum-Flux-Residual          L2-NORM 
          0                 1           2             1    1     1       0.3736353263E-02       1    1    1         0.1939426960E+00      0.4195856747E+00
          0                 2           2             4   13     1      -0.7509882648E-03       4   13    1        -0.4522641388E-01      0.8746836094E-01
          0                 3           2             4   13     1      -0.5823013778E-03       4   13    1        -0.3507941829E-01      0.6135520868E-01
          0                 4           1             4   13     1       0.3060238133E-04       4   13    1         0.1895574249E-02      0.3206280926E-02

    ------------------------------------------------
       NWT REQUIRED            4 OUTER ITERATIONS 
       AND A TOTAL OF          7 INNER ITERATIONS.
    ------------------------------------------------

 NO OUTPUT CONTROL FOR STRESS PERIOD   17   TIME STEP   29
 
 SOLVING FOR HEAD 
                                                   Max.-Head-Change                         Max.-Flux-Residual
  Residual-Control   Outer-Iter.   Inner-Iter.     Column Row Layer    Maximum-Head-Change  Column Row Layer    Maximum-Flux-Residual          L2-NORM 
          0                 1           2             1    1     1       0.3263302114E-02       1    1    1         0.1693702929E+00      0.3992465801E+00
          0                 2           2             4   13     1      -0.5232764647E-03       4   13    1        -0.3061693917E-01      0.6381128441E-01
          0                 3           2             4   13     1      -0.5910987487E-03       4   13    1        -0.3460880748E-01      0.6052127905E-01
          0                 4           1             4   13     1       0.4700608002E-04       4   13    1         0.2829942577E-02      0.4811248688E-02

    ------------------------------------------------
       NWT REQUIRED            4 OUTER ITERATIONS 
       AND A TOTAL OF          7 INNER ITERATIONS.
    ------------------------------------------------

 NO OUTPUT CONTROL FOR STRESS PERIOD   17   TIME STEP   30



 STREAM LISTING     PERIOD     17   STEP       30

 LAYER ROW COL. STREAM  RCH.  FLOW INTO     FLOW TO   FLOW OUT OF   OVRLND.     DIRECT     STREAM       STREAM     STREAM     STREAM   STREAMBED  STREAMBED
                SEG.NO.  NO.  STRM. RCH.    AQUIFER    STRM. RCH.    RUNOFF     PRECIP       ET          HEAD       DEPTH      WIDTH   CONDCTNC.   GRADIENT

   1    1    1     1     1    4.9431E+01  3.3436E-01   4.9097E+01  0.000E+00  0.000E+00  0.000E+00  1.09444E+03  1.395E+00  1.690E+01  7.607E-02  1.465E+00
   1    2    2     1     2    4.9097E+01  5.1808E-01   4.8579E+01  0.000E+00  0.000E+00  0.000E+00  1.08945E+03  1.393E+00  1.685E+01  1.179E-01  1.464E+00
   1    3    3     1     3    4.8579E+01  4.4210E-01   4.8137E+01  0.000E+00  0.000E+00  0.000E+00  1.08381E+03  1.390E+00  1.679E+01  1.007E-01  1.463E+00
   1    3    4     1     4    4.8137E+01  4.0732E-01   4.7729E+01  0.000E+00  0.000E+00  0.000E+00  1.07879E+03  1.387E+00  1.673E+01  9.285E-02  1.462E+00
   1    4    5     2     1    4.5729E+01  3.6899E-01   4.5360E+01  0.000E+00  0.000E+00  0.000E+00  1.07366E+03  1.731E+00  1.200E+01  7.800E-02  1.577E+00
   1    5    6     2     2    4.5360E+01  2.8339E-01   4.5077E+01  0.000E+00  0.000E+00  0.000E+00  1.06823E+03  1.723E+00  1.200E+01  6.000E-02  1.574E+00
   1    6    6     2     3    4.5077E+01  2.8300E-01   4.4794E+01  0.000E+00  0.000E+00  0.000E+00  1.06351E+03  1.717E+00  1.200E+01  6.000E-02  1.572E+00
   1    7    6     2     4    4.4794E+01  2.8261E-01   4.4511E+01  0.000E+00  0.000E+00  0.000E+00  1.05879E+03  1.710E+00  1.200E+01  6.000E-02  1.570E+00
   1    8    6     2     5    4.4511E+01  2.8222E-01   4.4229E+01  0.000E+00  0.000E+00  0.000E+00  1.05406E+03  1.704E+00  1.200E+01  6.000E-02  1.568E+00
   1    3    5     3     1    2.0000E+00  2.8252E-01   1.7175E+00  0.000E+00  0.000E+00  0.000E+00  1.07555E+03  1.909E+00  9.636E+00  7.227E-02  1.955E+00
   1    3    6     3     2    1.7175E+00  2.4905E-01   1.4684E+00  0.000E+00  0.000E+00  0.000E+00  1.07264E+03  1.727E+00  8.909E+00  6.682E-02  1.864E+00
   1    3    7     3     3    1.4684E+00  1.9718E-01   1.2712E+00  0.000E+00  0.000E+00  0.000E+00  1.06987E+03  1.555E+00  8.218E+00  5.547E-02  1.777E+00
   1    4    8     3     4    1.2712E+00  2.2567E-01   1.0456E+00  0.000E+00  0.000E+00  0.000E+00  1.06682E+03  1.364E+00  7.455E+00  6.709E-02  1.682E+00
   1    5    8     3     5    1.0456E+00  1.5790E-01   8.8768E-01  0.000E+00  0.000E+00  0.000E+00  1.06362E+03  1.164E+00  6.655E+00  4.991E-02  1.582E+00
   1    6    8     3     6    8.8768E-01  5.5980E-02   8.3170E-01  0.000E+00  0.000E+00  0.000E+00  1.06158E+03  1.036E+00  6.145E+00  1.844E-02  1.518E+00
   1    5   10     4     1    1.0000E+01  9.0919E-02   9.9091E+00  0.000E+00  0.000E+00  0.000E+00  1.07836E+03  6.368E-01  1.000E+01  2.500E-02  1.212E+00
   1    5    9     4     2    9.9091E+00  1.8158E-01   9.7275E+00  0.000E+00  0.000E+00  0.000E+00  1.07154E+03  6.315E-01  1.000E+01  5.000E-02  1.211E+00
   1    6    8     4     3    9.7275E+00  1.2689E-01   9.6006E+00  0.000E+00  0.000E+00  0.000E+00  1.06381E+03  6.256E-01  1.000E+01  3.500E-02  1.209E+00
   1    6    8     5     1    1.0432E+01  2.2686E-01   1.0205E+01  0.000E+00  0.000E+00  0.000E+00  1.05868E+03  6.790E-01  1.542E+01  6.166E-02  1.226E+00
   1    7    7     5     2    1.0205E+01  2.7894E-01   9.9265E+00  0.000E+00  0.000E+00  0.000E+00  1.05417E+03  6.732E-01  1.519E+01  7.594E-02  1.224E+00
   1    8    7     5     3    9.9265E+00  1.9221E-01   9.7343E+00  0.000E+00  0.000E+00  0.000E+00  1.04992E+03  6.676E-01  1.497E+01  5.241E-02  1.223E+00
   1    8    6     5     4    9.7343E+00  1.3577E-01   9.5985E+00  0.000E+00  0.000E+00  0.000E+00  1.04691E+03  6.637E-01  1.482E+01  3.706E-02  1.221E+00
   1    9    6     6     1    5.0244E+01  2.9125E-01   4.9952E+01  0.000E+00  0.000E+00  0.000E+00  1.04458E+03  1.854E+00  1.200E+01  6.000E-02  1.618E+00
   1   10    7     6     2    4.9952E+01  2.9086E-01   4.9662E+01  0.000E+00  0.000E+00  0.000E+00  1.04003E+03  1.848E+00  1.200E+01  6.000E-02  1.616E+00
   1   11    7     6     3    4.9662E+01  2.9047E-01   4.9371E+01  0.000E+00  0.000E+00  0.000E+00  1.03548E+03  1.841E+00  1.200E+01  6.000E-02  1.614E+00
   1   12    7     6     4    4.9371E+01  2.9009E-01   4.9081E+01  0.000E+00  0.000E+00  0.000E+00  1.03093E+03  1.835E+00  1.200E+01  6.000E-02  1.612E+00
   1   13    7     6     5    4.9081E+01  1.3965E-02   4.9067E+01  0.000E+00  0.000E+00  0.000E+00  1.02774E+03  1.831E+00  1.200E+01  2.400E-02  1.940E-01
   1   14    9     7     1    1.5000E+02  1.3363E+00   1.4866E+02  0.000E+00  0.000E+00  0.000E+00  1.03987E+03  2.288E+00  5.529E+01  5.593E-01  7.964E-01
   1   13    8     7     2    1.4866E+02  1.8198E+00   1.4684E+02  0.000E+00  0.000E+00  0.000E+00  1.03478E+03  2.279E+00  5.526E+01  6.148E-01  9.867E-01
   1   13    7     7     3    1.4684E+02  1.4137E+00   1.4543E+02  0.000E+00  0.000E+00  0.000E+00  1.02969E+03  2.271E+00  5.522E+01  5.585E-01  8.438E-01
   1   13    6     8     1    1.9450E+02  9.5252E-01   1.9354E+02  0.000E+00  0.000E+00  0.000E+00  1.02498E+03  3.103E+00  4.499E+01  4.584E-01  6.926E-01
   1   13    5     8     2    1.9354E+02  1.6315E-01   1.9338E+02  0.000E+00  0.000E+00  0.000E+00  1.01872E+03  3.099E+00  4.494E+01  4.579E-01  1.188E-01
   1   13    4     8     3    1.9338E+02 -2.6073E+00   1.9599E+02  0.000E+00  0.000E+00  0.000E+00  1.01248E+03  3.107E+00  4.504E+01  4.590E+00 -1.893E-01
   1   13    3     8     4    1.9599E+02 -3.7594E+00   1.9975E+02  0.000E+00  0.000E+00  0.000E+00  1.00625E+03  3.125E+00  4.532E+01  4.618E+00 -2.714E-01
   1   13    2     8     5    1.9975E+02 -2.7089E+00   2.0246E+02  0.000E+00  0.000E+00  0.000E+00  1.00002E+03  3.145E+00  4.560E+01  4.646E+00 -1.943E-01
   1   13    1     8     6    2.0246E+02 -2.0680E+00   2.0453E+02  0.000E+00  0.000E+00  0.000E+00  9.95033E+02  3.158E+00  4.580E+01  2.800E+00 -2.462E-01
   1    8    6     9     1    3.5840E+00  0.0000E+00   3.5840E+00  0.000E+00  0.000E+00  0.000E+00  1.07996E+03  1.213E+00  4.000E+00  0.000E+00  1.404E+00
   1    8    5     9     2    3.5840E+00  0.0000E+00   3.5840E+00  0.000E+00  0.000E+00  0.000E+00  1.07946E+03  1.213E+00  4.000E+00  0.000E+00  1.404E+00





UNSATURATED ZONE PACKAGE VOLUMETRIC BUDGET FOR  TIME STEP    30 STRESS PERIOD   17
  ------------------------------------------------------------------------------



     CUMULATIVE VOLUMES      L**3       RATES FOR THIS TIME STEP      L**3/T
     ------------------                 ------------------------

           IN:                                      IN:
           ---                                      ---
        INFILTRATION =   594946653.9597          INFILTRATION =           7.9916

          OUT:                                     OUT:
          ----                                     ----
              UZF ET =   536338066.8149                UZF ET =           7.8575
        UZF RECHARGE =      654072.9065          UZF RECHARGE =       0.0000E+00

            IN - OUT =    57954514.2383              IN - OUT =           0.1341

          STORAGE:                                 STORAGE:
          --------                                 --------
      STORAGE CHANGE =    57955106.7407        STORAGE CHANGE =           0.1341

 PERCENT DISCREPANCY IS DIFFERENCE BETWEEN IN-OUT MINUS CHANGE IN STORAGE
 DIVIDED BY THE AVERAGE OF IN AND OUT TIMES 100

 PERCENT DISCREPANCY =          -0.00     PERCENT DISCREPANCY =           0.00






1
  VOLUMETRIC BUDGET FOR ENTIRE MODEL AT END OF TIME STEP   30, STRESS PERIOD  17
  ------------------------------------------------------------------------------

     CUMULATIVE VOLUMES      L**3       RATES FOR THIS TIME STEP      L**3/T
     ------------------                 ------------------------

           IN:                                      IN:
           ---                                      ---
               AG WELLS  =    44426692.0000                 AG WELLS  =           0.0000
      DIVERSION SEGMENTS =   364971904.0000        DIVERSION SEGMENTS =           3.5840
           GW IRRIGATION =           0.0000             GW IRRIGATION =           0.0000
           SW IRRIGATION =           0.0000             SW IRRIGATION =           0.0000
        SYSTEM LOSSES GW =           0.0000          SYSTEM LOSSES GW =           0.0000
        SYSTEM LOSSES SW =           0.0000          SYSTEM LOSSES SW =           0.0000

                TOTAL IN =   409398592.0000                  TOTAL IN =           3.5840

          OUT:                                     OUT:
          ----                                     ----
               AG WELLS  =           0.0000                 AG WELLS  =           0.0000
      DIVERSION SEGMENTS =           0.0000        DIVERSION SEGMENTS =           0.0000
           GW IRRIGATION =    44426692.0000             GW IRRIGATION =           0.0000
           SW IRRIGATION =   364979200.0000             SW IRRIGATION =           3.5841
        SYSTEM LOSSES GW =           0.0000          SYSTEM LOSSES GW =           0.0000
        SYSTEM LOSSES SW =           0.0000          SYSTEM LOSSES SW =           0.0000

               TOTAL OUT =   409405888.0000                 TOTAL OUT =           3.5841

                IN - OUT =       -7296.0000                  IN - OUT =      -7.1526E-05

     PERCENT DISCREPANCY =          -0.00         PERCENT DISCREPANCY =          -0.00



1
  VOLUMETRIC BUDGET FOR ENTIRE MODEL AT END OF TIME STEP   30, STRESS PERIOD  17
  ------------------------------------------------------------------------------

     CUMULATIVE VOLUMES      L**3       RATES FOR THIS TIME STEP      L**3/T
     ------------------                 ------------------------

           IN:                                      IN:
           ---                                      ---
             STORAGE     =    88773528.0000               STORAGE     =           0.8824
       CONSTANT HEAD     =           0.0000         CONSTANT HEAD     =           0.0000
     HEAD DEP BOUNDS     =    12049705.0000       HEAD DEP BOUNDS     =           0.2858
      STREAM LEAKAGE     =   506218656.0000        STREAM LEAKAGE     =          12.4657
        UZF RECHARGE     =      654073.0000          UZF RECHARGE     =           0.0000
               GW ET     =           0.0000                 GW ET     =           0.0000
     SURFACE LEAKAGE     =           0.0000       SURFACE LEAKAGE     =           0.0000
           AG WELLS      =           0.0000             AG WELLS      =           0.0000

                TOTAL IN =   607696000.0000                  TOTAL IN =          13.6339

          OUT:                                     OUT:
          ----                                     ----
             STORAGE     =    95119496.0000               STORAGE     =           2.0653
       CONSTANT HEAD     =           0.0000         CONSTANT HEAD     =           0.0000
     HEAD DEP BOUNDS     =    12273187.0000       HEAD DEP BOUNDS     =           0.2953
      STREAM LEAKAGE     =   453982816.0000        STREAM LEAKAGE     =          11.1436
        UZF RECHARGE     =           0.0000          UZF RECHARGE     =           0.0000
               GW ET     =     1897927.2500                 GW ET     =           0.1303
     SURFACE LEAKAGE     =           0.0000       SURFACE LEAKAGE     =           0.0000
           AG WELLS      =    44426692.0000             AG WELLS      =           0.0000

               TOTAL OUT =   607700096.0000                 TOTAL OUT =          13.6346

                IN - OUT =       -4096.0000                  IN - OUT =      -6.9714E-04

     PERCENT DISCREPANCY =          -0.00         PERCENT DISCREPANCY =          -0.01






         TIME SUMMARY AT END OF TIME STEP   30 IN STRESS PERIOD   17
                    SECONDS     MINUTES      HOURS       DAYS        YEARS
                    -----------------------------------------------------------
   TIME STEP LENGTH  87667.      1461.1      24.352      1.0147     2.77799E-03
 STRESS PERIOD TIME 2.63000E+06  43833.      730.56      30.440     8.33397E-02
         TOTAL TIME 4.21664E+07 7.02774E+05  11713.      488.04      1.3362    
1
1
                            STRESS PERIOD NO.   18, LENGTH =   2630000.    
                            -----------------------------------------------

                              NUMBER OF TIME STEPS =    30

                               MULTIPLIER FOR DELT =     1.000

                            INITIAL TIME STEP SIZE =   87666.66    

 REUSING NON-PARAMETER GHB CELLS FROM LAST STRESS PERIOD

      2 GHB CELLS

 REUSING STREAM SEGMENT DATA FROM LAST STRESS PERIOD



            AREAL INFILTRATION RATE
 READING ON UNIT   19 WITH FORMAT: (10F4.0)            

            1           2           3           4           5           6           7           8           9          10
 ........................................................................................................................
   1   1.2000E-09   0.000       0.000       0.000       0.000       0.000       0.000       0.000       0.000       0.000    
   2   2.1000E-09  2.0000E-09  8.0000E-10  8.5000E-09   0.000       0.000       0.000       0.000       0.000       0.000    
   3   5.0000E-10  1.1000E-09  8.8000E-09  5.5000E-09   0.000       0.000       0.000       0.000       0.000       0.000    
   4   8.5000E-09  1.1000E-09  1.1000E-09  1.1000E-09  2.0000E-09   0.000       0.000       0.000       0.000       0.000    
   5   8.5000E-09  1.1000E-09  1.1000E-09  1.1000E-09  1.1000E-09   0.000       0.000       0.000       0.000       0.000    
   6   8.5000E-09  5.2000E-09  2.1000E-09  1.1000E-09  1.5000E-09   0.000       0.000       0.000       0.000       0.000    
   7   8.5000E-09  5.2000E-09  2.1000E-09  1.2000E-09  2.0000E-09   0.000       0.000       0.000       0.000       0.000    
   8   5.0000E-10  5.2000E-09  2.1000E-09  1.2000E-09  5.0000E-09   0.000       0.000       0.000       0.000       0.000    
   9   5.0000E-10  5.2000E-09  2.1000E-09  1.2000E-09  5.0000E-09   0.000       0.000       0.000       0.000       0.000    
  10   5.0000E-10  5.2000E-09  2.1000E-09  1.2000E-09  5.8000E-09   0.000       0.000       0.000       0.000       0.000    
  11   1.0000E-10  1.1000E-09  1.1000E-09  1.2000E-09  5.0000E-09   0.000       0.000       0.000       0.000       0.000    
  12   1.1000E-09  1.1000E-09  1.1000E-09  1.1000E-09  2.0000E-09   0.000       0.000       0.000       0.000       0.000    
  13   1.1000E-09  2.2000E-09  2.2000E-09  2.1000E-09  1.0000E-09   0.000       0.000       0.000       0.000       0.000    
  14   2.0000E-10  5.5000E-09  5.5000E-09  5.2000E-09  1.0000E-09   0.000       0.000       0.000       0.000       0.000    
  15    0.000      8.8000E-09  8.8000E-09   0.000       0.000       0.000       0.000       0.000       0.000       0.000    

                  ET RATE =  5.000000E-08

 USING ET EXTINCTION DEPTH FROM PREVIOUS STRESS PERIOD. CURRENT PERIOD IS:      18

 USING EXTINCTION WATER CONTENT FROM PREVIOUS STRESS PERIOD. CURRENT PERIOD IS:      18

 USING AIR ENTRY PRESSURE FROM PREVIOUS STRESS PERIOD. CURRENT PERIOD IS:      18

 USING ROOT PRESSURE HEAD FROM PREVIOUS STRESS PERIOD. CURRENT PERIOD IS:      18

 USING ROOT ACTIVITY FROM PREVIOUS STRESS PERIOD. CURRENT PERIOD IS:      18

 PROCESSING AG STRESS PERIOD DATA

 READING AG STRESS PERIOD DATA

 READING IRRIGATION SEGMENT

 READING IRRIGATION WELL

 READING SUPPLEMENTAL WELL

 END PROCESSING AG STRESS PERIOD DATA OPTIONS
 
 SOLVING FOR HEAD 
                                                   Max.-Head-Change                         Max.-Flux-Residual
  Residual-Control   Outer-Iter.   Inner-Iter.     Column Row Layer    Maximum-Head-Change  Column Row Layer    Maximum-Flux-Residual          L2-NORM 
          0                 1           2             3   13     1      -0.3248256246E-02       3   13    1        -0.1922508063E+00      0.4620053847E+00
          0                 2           2             2   13     1      -0.1130688257E-02       2   13    1        -0.6388019759E-01      0.1167183484E+00
          0                 3           2             4   13     1      -0.1164030013E-02       4   13    1        -0.6941804362E-01      0.1208633395E+00
          0                 4           1             4   13     1       0.1121883019E-03       4   13    1         0.6879179437E-02      0.1174363718E-01
          0                 5           1             4   13     1      -0.7534285451E-05       4   13    1        -0.4750056505E-03      0.7900723807E-03

    ------------------------------------------------
       NWT REQUIRED            5 OUTER ITERATIONS 
       AND A TOTAL OF          8 INNER ITERATIONS.
    ------------------------------------------------

 NO OUTPUT CONTROL FOR STRESS PERIOD   18   TIME STEP    1
 
 SOLVING FOR HEAD 
                                                   Max.-Head-Change                         Max.-Flux-Residual
  Residual-Control   Outer-Iter.   Inner-Iter.     Column Row Layer    Maximum-Head-Change  Column Row Layer    Maximum-Flux-Residual          L2-NORM 
          0                 1           2             1    1     1       0.3128372357E-02       1    1    1         0.1623611330E+00      0.4242059028E+00
          0                 2           2             2   13     1      -0.1156076151E-02       4   13    1        -0.6648969001E-01      0.1210913767E+00
          0                 3           2             2   13     1      -0.7518966350E-03       4   13    1        -0.4479179947E-01      0.7819590738E-01
          0                 4           1             4   13     1       0.4496200818E-04       4   13    1         0.2757470576E-02      0.4671953687E-02

    ------------------------------------------------
       NWT REQUIRED            4 OUTER ITERATIONS 
       AND A TOTAL OF          7 INNER ITERATIONS.
    ------------------------------------------------

 NO OUTPUT CONTROL FOR STRESS PERIOD   18   TIME STEP    2
 
 SOLVING FOR HEAD 
                                                   Max.-Head-Change                         Max.-Flux-Residual
  Residual-Control   Outer-Iter.   Inner-Iter.     Column Row Layer    Maximum-Head-Change  Column Row Layer    Maximum-Flux-Residual          L2-NORM 
          0                 1           2             1    1     1       0.3125890314E-02       1    1    1         0.1622320285E+00      0.3977575715E+00
          0                 2           2             2   13     1      -0.1198113841E-02       4   13    1        -0.7068120138E-01      0.1267288644E+00
          0                 3           2             2   13     1      -0.1166518655E-02       4   13    1        -0.6929000284E-01      0.1209472054E+00
          0                 4           1             4   13     1       0.9822344172E-04       4   13    1         0.6022741745E-02      0.1028421322E-01

    ------------------------------------------------
       NWT REQUIRED            4 OUTER ITERATIONS 
       AND A TOTAL OF          7 INNER ITERATIONS.
    ------------------------------------------------

 NO OUTPUT CONTROL FOR STRESS PERIOD   18   TIME STEP    3
 
 SOLVING FOR HEAD 
                                                   Max.-Head-Change                         Max.-Flux-Residual
  Residual-Control   Outer-Iter.   Inner-Iter.     Column Row Layer    Maximum-Head-Change  Column Row Layer    Maximum-Flux-Residual          L2-NORM 
          0                 1           2             1    1     1       0.3123393693E-02       1    1    1         0.1621021666E+00      0.3766963420E+00
          0                 2           2             4   13     1      -0.1240512945E-02       4   13    1        -0.7404031620E-01      0.1311584629E+00
          0                 3           2             2   13     1      -0.1178971663E-02       4   13    1        -0.6987556083E-01      0.1221493260E+00
          0                 4           1             4   13     1       0.1013442398E-03       4   13    1         0.6214127025E-02      0.1057764119E-01
          0                 5           1             4   13     1      -0.2010244016E-04       4   13    1        -0.1267196561E-02      0.2157730768E-02

    ------------------------------------------------
       NWT REQUIRED            5 OUTER ITERATIONS 
       AND A TOTAL OF          8 INNER ITERATIONS.
    ------------------------------------------------

 NO OUTPUT CONTROL FOR STRESS PERIOD   18   TIME STEP    4
 
 SOLVING FOR HEAD 
                                                   Max.-Head-Change                         Max.-Flux-Residual
  Residual-Control   Outer-Iter.   Inner-Iter.     Column Row Layer    Maximum-Head-Change  Column Row Layer    Maximum-Flux-Residual          L2-NORM 
          0                 1           2             1    1     1       0.3120905046E-02       1    1    1         0.1619727203E+00      0.3623314207E+00
          0                 2           2             4   13     1      -0.1290222981E-02       4   13    1        -0.7701356885E-01      0.1352143618E+00
          0                 3           2             2   13     1      -0.1188909725E-02       4   13    1        -0.7033757473E-01      0.1230555593E+00
          0                 4           1             4   13     1       0.9876541533E-04       4   13    1         0.6055777709E-02      0.1031777982E-01

    ------------------------------------------------
       NWT REQUIRED            4 OUTER ITERATIONS 
       AND A TOTAL OF          7 INNER ITERATIONS.
    ------------------------------------------------

 NO OUTPUT CONTROL FOR STRESS PERIOD   18   TIME STEP    5
 
 SOLVING FOR HEAD 
                                                   Max.-Head-Change                         Max.-Flux-Residual
  Residual-Control   Outer-Iter.   Inner-Iter.     Column Row Layer    Maximum-Head-Change  Column Row Layer    Maximum-Flux-Residual          L2-NORM 
          0                 1           2             1    1     1       0.3118424369E-02       1    1    1         0.1618436886E+00      0.3534802082E+00
          0                 2           2             4   13     1      -0.1333368529E-02       4   13    1        -0.7959339834E-01      0.1388415917E+00
          0                 3           2             2   13     1      -0.1195131951E-02       4   13    1        -0.7059998223E-01      0.1235962960E+00
          0                 4           1             4   13     1       0.1071574555E-03       4   13    1         0.6570235209E-02      0.1121909173E-01
          0                 5           1             4   13     1      -0.7145891595E-05       4   13    1        -0.4504560875E-03      0.7507642630E-03

    ------------------------------------------------
       NWT REQUIRED            5 OUTER ITERATIONS 
       AND A TOTAL OF          8 INNER ITERATIONS.
    ------------------------------------------------

 NO OUTPUT CONTROL FOR STRESS PERIOD   18   TIME STEP    6
 
 SOLVING FOR HEAD 
                                                   Max.-Head-Change                         Max.-Flux-Residual
  Residual-Control   Outer-Iter.   Inner-Iter.     Column Row Layer    Maximum-Head-Change  Column Row Layer    Maximum-Flux-Residual          L2-NORM 
          0                 1           2             1    1     1       0.3115974156E-02       1    1    1         0.1617162415E+00      0.3488695310E+00
          0                 2           2             4   13     1      -0.1333709068E-02       4   13    1        -0.8184895795E-01      0.1421100268E+00
          0                 3           2             2   13     1      -0.1208319633E-02       4   13    1        -0.7377765689E-01      0.1262939290E+00
          0                 4           1             2   13     1       0.1074654780E-03       2   13    1         0.6231888377E-02      0.1051169376E-01
          0                 5           1             2   13     1      -0.6929511045E-05       2   13    1        -0.4130271882E-03      0.6507710952E-03

    ------------------------------------------------
       NWT REQUIRED            5 OUTER ITERATIONS 
       AND A TOTAL OF          8 INNER ITERATIONS.
    ------------------------------------------------

 NO OUTPUT CONTROL FOR STRESS PERIOD   18   TIME STEP    7
 
 SOLVING FOR HEAD 
                                                   Max.-Head-Change                         Max.-Flux-Residual
  Residual-Control   Outer-Iter.   Inner-Iter.     Column Row Layer    Maximum-Head-Change  Column Row Layer    Maximum-Flux-Residual          L2-NORM 
          0                 1           2             1    1     1       0.3113509239E-02       1    1    1         0.1615880295E+00      0.3474106165E+00
          0                 2           2             4   13     1      -0.1362059272E-02       4   13    1        -0.8359104720E-01      0.1446590304E+00
          0                 3           2             2   13     1      -0.1213714689E-02       4   13    1        -0.7406311758E-01      0.1278993481E+00
          0                 4           1             2   13     1       0.1037073773E-03       2   13    1         0.6028213441E-02      0.9239490547E-02
          0                 5           1             2   13     1      -0.6733993953E-05       2   13    1        -0.4033050000E-03      0.5208826593E-03

    ------------------------------------------------
       NWT REQUIRED            5 OUTER ITERATIONS 
       AND A TOTAL OF          8 INNER ITERATIONS.
    ------------------------------------------------

 NO OUTPUT CONTROL FOR STRESS PERIOD   18   TIME STEP    8
 
 SOLVING FOR HEAD 
                                                   Max.-Head-Change                         Max.-Flux-Residual
  Residual-Control   Outer-Iter.   Inner-Iter.     Column Row Layer    Maximum-Head-Change  Column Row Layer    Maximum-Flux-Residual          L2-NORM 
          0                 1           2             1    1     1       0.3111052181E-02       1    1    1         0.1614602276E+00      0.3482279456E+00
          0                 2           2             4   13     1      -0.1393540687E-02       4   13    1        -0.8552403438E-01      0.1476512802E+00
          0                 3           2             2   13     1      -0.1214057386E-02       4   13    1        -0.7367533148E-01      0.1284805342E+00
          0                 4           1             4   13     1       0.7354351181E-04       4   13    1         0.4631224387E-02      0.8285209562E-02

    ------------------------------------------------
       NWT REQUIRED            4 OUTER ITERATIONS 
       AND A TOTAL OF          7 INNER ITERATIONS.
    ------------------------------------------------

 NO OUTPUT CONTROL FOR STRESS PERIOD   18   TIME STEP    9
 
 SOLVING FOR HEAD 
                                                   Max.-Head-Change                         Max.-Flux-Residual
  Residual-Control   Outer-Iter.   Inner-Iter.     Column Row Layer    Maximum-Head-Change  Column Row Layer    Maximum-Flux-Residual          L2-NORM 
          0                 1           2             1    1     1       0.3108602936E-02       1    1    1         0.1613328337E+00      0.3506012217E+00
          0                 2           2             4   13     1      -0.1417673337E-02       4   13    1        -0.8700548398E-01      0.1499921819E+00
          0                 3           2             2   13     1      -0.1196980887E-02       4   13    1        -0.7262551287E-01      0.1266386647E+00
          0                 4           1             4   13     1       0.5599805339E-04       4   13    1         0.3525852797E-02      0.6339345361E-02

    ------------------------------------------------
       NWT REQUIRED            4 OUTER ITERATIONS 
       AND A TOTAL OF          7 INNER ITERATIONS.
    ------------------------------------------------

 NO OUTPUT CONTROL FOR STRESS PERIOD   18   TIME STEP   10
 
 SOLVING FOR HEAD 
                                                   Max.-Head-Change                         Max.-Flux-Residual
  Residual-Control   Outer-Iter.   Inner-Iter.     Column Row Layer    Maximum-Head-Change  Column Row Layer    Maximum-Flux-Residual          L2-NORM 
          0                 1           2             1    1     1       0.3106161501E-02       1    1    1         0.1612058444E+00      0.3539793379E+00
          0                 2           2             4   13     1      -0.1438776200E-02       4   13    1        -0.8830049235E-01      0.1520957796E+00
          0                 3           2             2   13     1      -0.1197564639E-02       4   13    1        -0.7260012428E-01      0.1266476866E+00
          0                 4           1             4   13     1       0.5617929699E-04       4   13    1         0.3536916463E-02      0.6398888120E-02

    ------------------------------------------------
       NWT REQUIRED            4 OUTER ITERATIONS 
       AND A TOTAL OF          7 INNER ITERATIONS.
    ------------------------------------------------

 NO OUTPUT CONTROL FOR STRESS PERIOD   18   TIME STEP   11
 
 SOLVING FOR HEAD 
                                                   Max.-Head-Change                         Max.-Flux-Residual
  Residual-Control   Outer-Iter.   Inner-Iter.     Column Row Layer    Maximum-Head-Change  Column Row Layer    Maximum-Flux-Residual          L2-NORM 
          0                 1           2             1    1     1       0.3103727828E-02       1    1    1         0.1610792600E+00      0.3579576714E+00
          0                 2           2             4   13     1      -0.1457168783E-02       4   13    1        -0.8942870720E-01      0.1539821048E+00
          0                 3           2             2   13     1      -0.1200392347E-02       4   13    1        -0.7274469889E-01      0.1269132504E+00
          0                 4           1             4   13     1       0.5867180028E-04       4   13    1         0.3694029561E-02      0.6666753014E-02

    ------------------------------------------------
       NWT REQUIRED            4 OUTER ITERATIONS 
       AND A TOTAL OF          7 INNER ITERATIONS.
    ------------------------------------------------

 NO OUTPUT CONTROL FOR STRESS PERIOD   18   TIME STEP   12
 
 SOLVING FOR HEAD 
                                                   Max.-Head-Change                         Max.-Flux-Residual
  Residual-Control   Outer-Iter.   Inner-Iter.     Column Row Layer    Maximum-Head-Change  Column Row Layer    Maximum-Flux-Residual          L2-NORM 
          0                 1           2             1    1     1       0.3101301900E-02       1    1    1         0.1609530780E+00      0.3622426851E+00
          0                 2           2             4   13     1      -0.1473211426E-02       4   13    1        -0.9041235160E-01      0.1556761671E+00
          0                 3           2             2   13     1      -0.1203513336E-02       4   13    1        -0.7291243278E-01      0.1272153844E+00
          0                 4           1             4   13     1       0.6134296421E-04       4   13    1         0.3862343361E-02      0.6958397537E-02

    ------------------------------------------------
       NWT REQUIRED            4 OUTER ITERATIONS 
       AND A TOTAL OF          7 INNER ITERATIONS.
    ------------------------------------------------

 NO OUTPUT CONTROL FOR STRESS PERIOD   18   TIME STEP   13
 
 SOLVING FOR HEAD 
                                                   Max.-Head-Change                         Max.-Flux-Residual
  Residual-Control   Outer-Iter.   Inner-Iter.     Column Row Layer    Maximum-Head-Change  Column Row Layer    Maximum-Flux-Residual          L2-NORM 
          0                 1           2             1    1     1       0.3098906229E-02       1    1    1         0.1608284708E+00      0.3666407183E+00
          0                 2           2             4   13     1      -0.1487218042E-02       4   13    1        -0.9127077533E-01      0.1571993469E+00
          0                 3           2             2   13     1      -0.1205306209E-02       4   13    1        -0.7299928411E-01      0.1273765129E+00
          0                 4           1             4   13     1       0.6289392015E-04       4   13    1         0.3960084316E-02      0.7127710906E-02

    ------------------------------------------------
       NWT REQUIRED            4 OUTER ITERATIONS 
       AND A TOTAL OF          7 INNER ITERATIONS.
    ------------------------------------------------

 NO OUTPUT CONTROL FOR STRESS PERIOD   18   TIME STEP   14
 
 SOLVING FOR HEAD 
                                                   Max.-Head-Change                         Max.-Flux-Residual
  Residual-Control   Outer-Iter.   Inner-Iter.     Column Row Layer    Maximum-Head-Change  Column Row Layer    Maximum-Flux-Residual          L2-NORM 
          0                 1           2             1    1     1       0.3096495598E-02       1    1    1         0.1607030861E+00      0.3710065188E+00
          0                 2           2             4   13     1      -0.1499459255E-02       4   13    1        -0.9202064372E-01      0.1585734830E+00
          0                 3           2             2   13     1      -0.1206966050E-02       4   13    1        -0.7309059441E-01      0.1275373636E+00
          0                 4           1             4   13     1       0.6447509494E-04       4   13    1         0.4059734112E-02      0.7298897866E-02

    ------------------------------------------------
       NWT REQUIRED            4 OUTER ITERATIONS 
       AND A TOTAL OF          7 INNER ITERATIONS.
    ------------------------------------------------

 NO OUTPUT CONTROL FOR STRESS PERIOD   18   TIME STEP   15
 
 SOLVING FOR HEAD 
                                                   Max.-Head-Change                         Max.-Flux-Residual
  Residual-Control   Outer-Iter.   Inner-Iter.     Column Row Layer    Maximum-Head-Change  Column Row Layer    Maximum-Flux-Residual          L2-NORM 
          0                 1           2             1    1     1       0.3094092614E-02       1    1    1         0.1605780989E+00      0.3752473518E+00
          0                 2           2             4   13     1      -0.1505732953E-02       4   13    1        -0.9240443729E-01      0.1593484497E+00
          0                 3           2             2   13     1      -0.1222082980E-02       4   13    1        -0.7400046419E-01      0.1291263443E+00
          0                 4           1             4   13     1       0.7528615903E-04       4   13    1         0.4741008215E-02      0.8479766778E-02

    ------------------------------------------------
       NWT REQUIRED            4 OUTER ITERATIONS 
       AND A TOTAL OF          7 INNER ITERATIONS.
    ------------------------------------------------

 NO OUTPUT CONTROL FOR STRESS PERIOD   18   TIME STEP   16
 
 SOLVING FOR HEAD 
                                                   Max.-Head-Change                         Max.-Flux-Residual
  Residual-Control   Outer-Iter.   Inner-Iter.     Column Row Layer    Maximum-Head-Change  Column Row Layer    Maximum-Flux-Residual          L2-NORM 
          0                 1           2             1    1     1       0.3091697232E-02       1    1    1         0.1604535082E+00      0.3793036604E+00
          0                 2           2             4   13     1      -0.1516041187E-02       4   13    1        -0.9303531154E-01      0.1605641864E+00
          0                 3           2             2   13     1      -0.1221081434E-02       4   13    1        -0.7392870262E-01      0.1293810792E+00
          0                 4           1             4   13     1       0.7495654607E-04       4   13    1         0.4720257941E-02      0.8074716784E-02

    ------------------------------------------------
       NWT REQUIRED            4 OUTER ITERATIONS 
       AND A TOTAL OF          7 INNER ITERATIONS.
    ------------------------------------------------

 NO OUTPUT CONTROL FOR STRESS PERIOD   18   TIME STEP   17
 
 SOLVING FOR HEAD 
                                                   Max.-Head-Change                         Max.-Flux-Residual
  Residual-Control   Outer-Iter.   Inner-Iter.     Column Row Layer    Maximum-Head-Change  Column Row Layer    Maximum-Flux-Residual          L2-NORM 
          0                 1           2             1    1     1       0.3089309410E-02       1    1    1         0.1603293116E+00      0.3831389313E+00
          0                 2           2             4   13     1      -0.1525135456E-02       4   13    1        -0.9359166808E-01      0.1616653871E+00
          0                 3           2             2   13     1      -0.1220142727E-02       4   13    1        -0.7386336762E-01      0.1292728257E+00
          0                 4           1             4   13     1       0.7463167087E-04       4   13    1         0.4699783687E-02      0.8041202593E-02

    ------------------------------------------------
       NWT REQUIRED            4 OUTER ITERATIONS 
       AND A TOTAL OF          7 INNER ITERATIONS.
    ------------------------------------------------

 NO OUTPUT CONTROL FOR STRESS PERIOD   18   TIME STEP   18
 
 SOLVING FOR HEAD 
                                                   Max.-Head-Change                         Max.-Flux-Residual
  Residual-Control   Outer-Iter.   Inner-Iter.     Column Row Layer    Maximum-Head-Change  Column Row Layer    Maximum-Flux-Residual          L2-NORM 
          0                 1           2             1    1     1       0.3086929126E-02       1    1    1         0.1602055070E+00      0.3867363017E+00
          0                 2           2             4   13     1      -0.1533136057E-02       4   13    1        -0.9408082204E-01      0.1626632034E+00
          0                 3           2             2   13     1      -0.1219325424E-02       4   13    1        -0.7380465221E-01      0.1291753807E+00
          0                 4           1             4   13     1       0.7435691774E-04       4   13    1         0.4682462852E-02      0.8012580866E-02

    ------------------------------------------------
       NWT REQUIRED            4 OUTER ITERATIONS 
       AND A TOTAL OF          7 INNER ITERATIONS.
    ------------------------------------------------

 NO OUTPUT CONTROL FOR STRESS PERIOD   18   TIME STEP   19
 
 SOLVING FOR HEAD 
                                                   Max.-Head-Change                         Max.-Flux-Residual
  Residual-Control   Outer-Iter.   Inner-Iter.     Column Row Layer    Maximum-Head-Change  Column Row Layer    Maximum-Flux-Residual          L2-NORM 
          0                 1           2             1    1     1       0.3084556364E-02       1    1    1         0.1600820932E+00      0.3900994402E+00
          0                 2           2             4   13     1      -0.1540201207E-02       4   13    1        -0.9451256294E-01      0.1635691876E+00
          0                 3           2             2   13     1      -0.1218315516E-02       4   13    1        -0.7374055455E-01      0.1290622931E+00
          0                 4           1             4   13     1       0.7413136932E-04       4   13    1         0.4668292149E-02      0.7984890787E-02

    ------------------------------------------------
       NWT REQUIRED            4 OUTER ITERATIONS 
       AND A TOTAL OF          7 INNER ITERATIONS.
    ------------------------------------------------

 NO OUTPUT CONTROL FOR STRESS PERIOD   18   TIME STEP   20
 
 SOLVING FOR HEAD 
                                                   Max.-Head-Change                         Max.-Flux-Residual
  Residual-Control   Outer-Iter.   Inner-Iter.     Column Row Layer    Maximum-Head-Change  Column Row Layer    Maximum-Flux-Residual          L2-NORM 
          0                 1           2             1    1     1       0.3082191094E-02       1    1    1         0.1599590694E+00      0.3932143278E+00
          0                 2           2             4   13     1      -0.1546666039E-02       4   13    1        -0.9490748001E-01      0.1644103803E+00
          0                 3           2             2   13     1      -0.1215485761E-02       4   13    1        -0.7355825408E-01      0.1287522327E+00
          0                 4           1             4   13     1       0.7270218422E-04       4   13    1         0.4578242202E-02      0.7829207953E-02

    ------------------------------------------------
       NWT REQUIRED            4 OUTER ITERATIONS 
       AND A TOTAL OF          7 INNER ITERATIONS.
    ------------------------------------------------

 NO OUTPUT CONTROL FOR STRESS PERIOD   18   TIME STEP   21
 
 SOLVING FOR HEAD 
                                                   Max.-Head-Change                         Max.-Flux-Residual
  Residual-Control   Outer-Iter.   Inner-Iter.     Column Row Layer    Maximum-Head-Change  Column Row Layer    Maximum-Flux-Residual          L2-NORM 
          0                 1           2             1    1     1       0.3079833268E-02       1    1    1         0.1598364341E+00      0.3960908401E+00
          0                 2           2             4   13     1      -0.1551378967E-02       4   13    1        -0.9519486650E-01      0.1650809141E+00
          0                 3           2             2   13     1      -0.1215162494E-02       4   13    1        -0.7353982960E-01      0.1287139373E+00
          0                 4           1             4   13     1       0.7290534361E-04       4   13    1         0.4591063542E-02      0.7850870627E-02

    ------------------------------------------------
       NWT REQUIRED            4 OUTER ITERATIONS 
       AND A TOTAL OF          7 INNER ITERATIONS.
    ------------------------------------------------

 NO OUTPUT CONTROL FOR STRESS PERIOD   18   TIME STEP   22
 
 SOLVING FOR HEAD 
                                                   Max.-Head-Change                         Max.-Flux-Residual
  Residual-Control   Outer-Iter.   Inner-Iter.     Column Row Layer    Maximum-Head-Change  Column Row Layer    Maximum-Flux-Residual          L2-NORM 
          0                 1           2             1    1     1       0.3077482871E-02       1    1    1         0.1597141848E+00      0.3987475430E+00
          0                 2           2             4   13     1      -0.1555576959E-02       4   13    1        -0.9545070593E-01      0.1656999286E+00
          0                 3           2             2   13     1      -0.1214712092E-02       4   13    1        -0.7352117595E-01      0.1287046233E+00
          0                 4           1             4   13     1       0.7308822606E-04       4   13    1         0.4606326860E-02      0.7841586130E-02

    ------------------------------------------------
       NWT REQUIRED            4 OUTER ITERATIONS 
       AND A TOTAL OF          7 INNER ITERATIONS.
    ------------------------------------------------

 NO OUTPUT CONTROL FOR STRESS PERIOD   18   TIME STEP   23
 
 SOLVING FOR HEAD 
                                                   Max.-Head-Change                         Max.-Flux-Residual
  Residual-Control   Outer-Iter.   Inner-Iter.     Column Row Layer    Maximum-Head-Change  Column Row Layer    Maximum-Flux-Residual          L2-NORM 
          0                 1           2             1    1     1       0.3075139857E-02       1    1    1         0.1595923206E+00      0.4011793354E+00
          0                 2           2             4   13     1      -0.1559255465E-02       4   13    1        -0.9567469727E-01      0.1662469759E+00
          0                 3           2             2   13     1      -0.1214833738E-02       4   13    1        -0.7351253549E-01      0.1286982629E+00
          0                 4           1             4   13     1       0.8060142045E-04       4   13    1         0.5079843464E-02      0.8664395946E-02

    ------------------------------------------------
       NWT REQUIRED            4 OUTER ITERATIONS 
       AND A TOTAL OF          7 INNER ITERATIONS.
    ------------------------------------------------

 NO OUTPUT CONTROL FOR STRESS PERIOD   18   TIME STEP   24
 
 SOLVING FOR HEAD 
                                                   Max.-Head-Change                         Max.-Flux-Residual
  Residual-Control   Outer-Iter.   Inner-Iter.     Column Row Layer    Maximum-Head-Change  Column Row Layer    Maximum-Flux-Residual          L2-NORM 
          0                 1           2             1    1     1       0.3072781579E-02       1    1    1         0.1594696651E+00      0.4033643492E+00
          0                 2           2             4   13     1      -0.1562448260E-02       4   13    1        -0.9586889178E-01      0.1667501588E+00
          0                 3           2             2   13     1      -0.1217230501E-02       4   13    1        -0.7365771209E-01      0.1289496557E+00
          0                 4           1             4   13     1       0.8076897320E-04       4   13    1         0.5090405595E-02      0.8684912693E-02

    ------------------------------------------------
       NWT REQUIRED            4 OUTER ITERATIONS 
       AND A TOTAL OF          7 INNER ITERATIONS.
    ------------------------------------------------

 NO OUTPUT CONTROL FOR STRESS PERIOD   18   TIME STEP   25
 
 SOLVING FOR HEAD 
                                                   Max.-Head-Change                         Max.-Flux-Residual
  Residual-Control   Outer-Iter.   Inner-Iter.     Column Row Layer    Maximum-Head-Change  Column Row Layer    Maximum-Flux-Residual          L2-NORM 
          0                 1           2             1    1     1       0.3070453286E-02       1    1    1         0.1593485665E+00      0.4053815306E+00
          0                 2           2             4   13     1      -0.1565230524E-02       4   13    1        -0.9603793900E-01      0.1672054043E+00
          0                 3           2             2   13     1      -0.1217408662E-02       4   13    1        -0.7366872933E-01      0.1289665511E+00
          0                 4           1             4   13     1       0.8077079655E-04       4   13    1         0.5090522016E-02      0.8685388572E-02

    ------------------------------------------------
       NWT REQUIRED            4 OUTER ITERATIONS 
       AND A TOTAL OF          7 INNER ITERATIONS.
    ------------------------------------------------

 NO OUTPUT CONTROL FOR STRESS PERIOD   18   TIME STEP   26
 
 SOLVING FOR HEAD 
                                                   Max.-Head-Change                         Max.-Flux-Residual
  Residual-Control   Outer-Iter.   Inner-Iter.     Column Row Layer    Maximum-Head-Change  Column Row Layer    Maximum-Flux-Residual          L2-NORM 
          0                 1           2             1    1     1       0.3068132283E-02       1    1    1         0.1592278484E+00      0.4072373078E+00
          0                 2           2             4   13     1      -0.1567703066E-02       4   13    1        -0.9618804295E-01      0.1676235327E+00
          0                 3           2             2   13     1      -0.1217606395E-02       4   13    1        -0.7367999433E-01      0.1289848867E+00
          0                 4           1             4   13     1       0.7428547867E-04       4   13    1         0.4681814475E-02      0.7973233144E-02

    ------------------------------------------------
       NWT REQUIRED            4 OUTER ITERATIONS 
       AND A TOTAL OF          7 INNER ITERATIONS.
    ------------------------------------------------

 NO OUTPUT CONTROL FOR STRESS PERIOD   18   TIME STEP   27
 
 SOLVING FOR HEAD 
                                                   Max.-Head-Change                         Max.-Flux-Residual
  Residual-Control   Outer-Iter.   Inner-Iter.     Column Row Layer    Maximum-Head-Change  Column Row Layer    Maximum-Flux-Residual          L2-NORM 
          0                 1           2             1    1     1       0.3065818557E-02       1    1    1         0.1591075083E+00      0.4089737773E+00
          0                 2           2             4   13     1      -0.1569951371E-02       4   13    1        -0.9632446075E-01      0.1680065144E+00
          0                 3           2             2   13     1      -0.1216532016E-02       4   13    1        -0.7361483391E-01      0.1288694064E+00
          0                 4           1             4   13     1       0.7433793447E-04       4   13    1         0.4685129681E-02      0.7978648456E-02

    ------------------------------------------------
       NWT REQUIRED            4 OUTER ITERATIONS 
       AND A TOTAL OF          7 INNER ITERATIONS.
    ------------------------------------------------

 NO OUTPUT CONTROL FOR STRESS PERIOD   18   TIME STEP   28
 
 SOLVING FOR HEAD 
                                                   Max.-Head-Change                         Max.-Flux-Residual
  Residual-Control   Outer-Iter.   Inner-Iter.     Column Row Layer    Maximum-Head-Change  Column Row Layer    Maximum-Flux-Residual          L2-NORM 
          0                 1           2             1    1     1       0.3063512080E-02       1    1    1         0.1589875455E+00      0.4105593444E+00
          0                 2           2             4   13     1      -0.1571907567E-02       4   13    1        -0.9644298597E-01      0.1683567998E+00
          0                 3           2             2   13     1      -0.1215876725E-02       4   13    1        -0.7357623194E-01      0.1287997730E+00
          0                 4           1             4   13     1       0.7444668745E-04       4   13    1         0.4691985658E-02      0.7989772821E-02

    ------------------------------------------------
       NWT REQUIRED            4 OUTER ITERATIONS 
       AND A TOTAL OF          7 INNER ITERATIONS.
    ------------------------------------------------

 NO OUTPUT CONTROL FOR STRESS PERIOD   18   TIME STEP   29
 
 SOLVING FOR HEAD 
                                                   Max.-Head-Change                         Max.-Flux-Residual
  Residual-Control   Outer-Iter.   Inner-Iter.     Column Row Layer    Maximum-Head-Change  Column Row Layer    Maximum-Flux-Residual          L2-NORM 
          0                 1           2             1    1     1       0.3061212803E-02       1    1    1         0.1588679586E+00      0.4119953163E+00
          0                 2           2             4   13     1      -0.1573638684E-02       4   13    1        -0.9654776018E-01      0.1686769553E+00
          0                 3           2             2   13     1      -0.1215456014E-02       4   13    1        -0.7355101353E-01      0.1287531926E+00
          0                 4           1             4   13     1       0.7460071336E-04       4   13    1         0.4701711636E-02      0.8006707718E-02

    ------------------------------------------------
       NWT REQUIRED            4 OUTER ITERATIONS 
       AND A TOTAL OF          7 INNER ITERATIONS.
    ------------------------------------------------

 NO OUTPUT CONTROL FOR STRESS PERIOD   18   TIME STEP   30



 STREAM LISTING     PERIOD     18   STEP       30

 LAYER ROW COL. STREAM  RCH.  FLOW INTO     FLOW TO   FLOW OUT OF   OVRLND.     DIRECT     STREAM       STREAM     STREAM     STREAM   STREAMBED  STREAMBED
                SEG.NO.  NO.  STRM. RCH.    AQUIFER    STRM. RCH.    RUNOFF     PRECIP       ET          HEAD       DEPTH      WIDTH   CONDCTNC.   GRADIENT

   1    1    1     1     1    4.7251E+01  3.2762E-01   4.6923E+01  0.000E+00  0.000E+00  0.000E+00  1.09443E+03  1.381E+00  1.662E+01  7.477E-02  1.460E+00
   1    2    2     1     2    4.6923E+01  5.0760E-01   4.6416E+01  0.000E+00  0.000E+00  0.000E+00  1.08944E+03  1.379E+00  1.656E+01  1.159E-01  1.460E+00
   1    3    3     1     3    4.6416E+01  4.3310E-01   4.5982E+01  0.000E+00  0.000E+00  0.000E+00  1.08379E+03  1.376E+00  1.650E+01  9.898E-02  1.459E+00
   1    3    4     1     4    4.5982E+01  3.9899E-01   4.5583E+01  0.000E+00  0.000E+00  0.000E+00  1.07878E+03  1.373E+00  1.644E+01  9.124E-02  1.458E+00
   1    4    5     2     1    4.3583E+01  3.6514E-01   4.3218E+01  0.000E+00  0.000E+00  0.000E+00  1.07362E+03  1.681E+00  1.200E+01  7.800E-02  1.560E+00
   1    5    6     2     2    4.3218E+01  2.8043E-01   4.2938E+01  0.000E+00  0.000E+00  0.000E+00  1.06818E+03  1.674E+00  1.200E+01  6.000E-02  1.558E+00
   1    6    6     2     3    4.2938E+01  2.8003E-01   4.2658E+01  0.000E+00  0.000E+00  0.000E+00  1.06346E+03  1.667E+00  1.200E+01  6.000E-02  1.556E+00
   1    7    6     2     4    4.2658E+01  2.7964E-01   4.2378E+01  0.000E+00  0.000E+00  0.000E+00  1.05874E+03  1.661E+00  1.200E+01  6.000E-02  1.554E+00
   1    8    6     2     5    4.2378E+01  2.7925E-01   4.2099E+01  0.000E+00  0.000E+00  0.000E+00  1.05401E+03  1.654E+00  1.200E+01  6.000E-02  1.551E+00
   1    3    5     3     1    2.0000E+00  2.8252E-01   1.7175E+00  0.000E+00  0.000E+00  0.000E+00  1.07555E+03  1.909E+00  9.636E+00  7.227E-02  1.955E+00
   1    3    6     3     2    1.7175E+00  2.4905E-01   1.4684E+00  0.000E+00  0.000E+00  0.000E+00  1.07264E+03  1.727E+00  8.909E+00  6.682E-02  1.864E+00
   1    3    7     3     3    1.4684E+00  1.9718E-01   1.2712E+00  0.000E+00  0.000E+00  0.000E+00  1.06987E+03  1.555E+00  8.218E+00  5.547E-02  1.777E+00
   1    4    8     3     4    1.2712E+00  2.2567E-01   1.0456E+00  0.000E+00  0.000E+00  0.000E+00  1.06682E+03  1.364E+00  7.455E+00  6.709E-02  1.682E+00
   1    5    8     3     5    1.0456E+00  1.5790E-01   8.8768E-01  0.000E+00  0.000E+00  0.000E+00  1.06362E+03  1.164E+00  6.655E+00  4.991E-02  1.582E+00
   1    6    8     3     6    8.8768E-01  5.5980E-02   8.3170E-01  0.000E+00  0.000E+00  0.000E+00  1.06158E+03  1.036E+00  6.145E+00  1.844E-02  1.518E+00
   1    5   10     4     1    1.0000E+01  9.0919E-02   9.9091E+00  0.000E+00  0.000E+00  0.000E+00  1.07836E+03  6.368E-01  1.000E+01  2.500E-02  1.212E+00
   1    5    9     4     2    9.9091E+00  1.8158E-01   9.7275E+00  0.000E+00  0.000E+00  0.000E+00  1.07154E+03  6.315E-01  1.000E+01  5.000E-02  1.211E+00
   1    6    8     4     3    9.7275E+00  1.2689E-01   9.6006E+00  0.000E+00  0.000E+00  0.000E+00  1.06381E+03  6.256E-01  1.000E+01  3.500E-02  1.209E+00
   1    6    8     5     1    1.0432E+01  2.2686E-01   1.0205E+01  0.000E+00  0.000E+00  0.000E+00  1.05868E+03  6.790E-01  1.542E+01  6.166E-02  1.226E+00
   1    7    7     5     2    1.0205E+01  2.7894E-01   9.9265E+00  0.000E+00  0.000E+00  0.000E+00  1.05417E+03  6.732E-01  1.519E+01  7.594E-02  1.224E+00
   1    8    7     5     3    9.9265E+00  1.9221E-01   9.7343E+00  0.000E+00  0.000E+00  0.000E+00  1.04992E+03  6.676E-01  1.497E+01  5.241E-02  1.223E+00
   1    8    6     5     4    9.7343E+00  1.3577E-01   9.5985E+00  0.000E+00  0.000E+00  0.000E+00  1.04691E+03  6.637E-01  1.482E+01  3.706E-02  1.221E+00
   1    9    6     6     1    4.4376E+01  2.8318E-01   4.4092E+01  0.000E+00  0.000E+00  0.000E+00  1.04445E+03  1.720E+00  1.200E+01  6.000E-02  1.573E+00
   1   10    7     6     2    4.4092E+01  2.8279E-01   4.3810E+01  0.000E+00  0.000E+00  0.000E+00  1.03989E+03  1.713E+00  1.200E+01  6.000E-02  1.571E+00
   1   11    7     6     3    4.3810E+01  2.8239E-01   4.3527E+01  0.000E+00  0.000E+00  0.000E+00  1.03534E+03  1.707E+00  1.200E+01  6.000E-02  1.569E+00
   1   12    7     6     4    4.3527E+01  2.8199E-01   4.3245E+01  0.000E+00  0.000E+00  0.000E+00  1.03079E+03  1.700E+00  1.200E+01  6.000E-02  1.567E+00
   1   13    7     6     5    4.3245E+01  1.0631E-02   4.3235E+01  0.000E+00  0.000E+00  0.000E+00  1.02761E+03  1.696E+00  1.200E+01  2.400E-02  1.477E-01
   1   14    9     7     1    1.5000E+02  1.3363E+00   1.4866E+02  0.000E+00  0.000E+00  0.000E+00  1.03987E+03  2.288E+00  5.529E+01  5.593E-01  7.964E-01
   1   13    8     7     2    1.4866E+02  1.8177E+00   1.4685E+02  0.000E+00  0.000E+00  0.000E+00  1.03478E+03  2.279E+00  5.526E+01  6.148E-01  9.856E-01
   1   13    7     7     3    1.4685E+02  1.4115E+00   1.4543E+02  0.000E+00  0.000E+00  0.000E+00  1.02969E+03  2.271E+00  5.522E+01  5.585E-01  8.425E-01
   1   13    6     8     1    1.8867E+02  9.3032E-01   1.8774E+02  0.000E+00  0.000E+00  0.000E+00  1.02494E+03  3.067E+00  4.447E+01  4.532E-01  6.843E-01
   1   13    5     8     2    1.8774E+02  1.5193E-01   1.8759E+02  0.000E+00  0.000E+00  0.000E+00  1.01869E+03  3.064E+00  4.442E+01  4.527E-01  1.119E-01
   1   13    4     8     3    1.8759E+02 -2.5557E+00   1.9014E+02  0.000E+00  0.000E+00  0.000E+00  1.01245E+03  3.071E+00  4.453E+01  4.538E+00 -1.877E-01
   1   13    3     8     4    1.9014E+02 -3.6805E+00   1.9382E+02  0.000E+00  0.000E+00  0.000E+00  1.00621E+03  3.090E+00  4.480E+01  4.566E+00 -2.687E-01
   1   13    2     8     5    1.9382E+02 -2.5944E+00   1.9642E+02  0.000E+00  0.000E+00  0.000E+00  9.99984E+02  3.109E+00  4.508E+01  4.594E+00 -1.883E-01
   1   13    1     8     6    1.9642E+02 -2.0117E+00   1.9843E+02  0.000E+00  0.000E+00  0.000E+00  9.94997E+02  3.123E+00  4.528E+01  2.768E+00 -2.422E-01
   1    8    6     9     1    7.3219E+00  0.0000E+00   7.3219E+00  0.000E+00  0.000E+00  0.000E+00  1.08063E+03  1.879E+00  4.000E+00  0.000E+00  1.626E+00
   1    8    5     9     2    7.3219E+00  0.0000E+00   7.3219E+00  0.000E+00  0.000E+00  0.000E+00  1.08013E+03  1.879E+00  4.000E+00  0.000E+00  1.626E+00





UNSATURATED ZONE PACKAGE VOLUMETRIC BUDGET FOR  TIME STEP    30 STRESS PERIOD   18
  ------------------------------------------------------------------------------



     CUMULATIVE VOLUMES      L**3       RATES FOR THIS TIME STEP      L**3/T
     ------------------                 ------------------------

           IN:                                      IN:
           ---                                      ---
        INFILTRATION =   625644944.2429          INFILTRATION =          11.7296

          OUT:                                     OUT:
          ----                                     ----
              UZF ET =   566865743.4731                UZF ET =          11.6063
        UZF RECHARGE =      654072.9065          UZF RECHARGE =       0.0000E+00

            IN - OUT =    58125127.8633              IN - OUT =           0.1233

          STORAGE:                                 STORAGE:
          --------                                 --------
      STORAGE CHANGE =    58125720.1848        STORAGE CHANGE =           0.1233

 PERCENT DISCREPANCY IS DIFFERENCE BETWEEN IN-OUT MINUS CHANGE IN STORAGE
 DIVIDED BY THE AVERAGE OF IN AND OUT TIMES 100

 PERCENT DISCREPANCY =          -0.00     PERCENT DISCREPANCY =           0.00






1
  VOLUMETRIC BUDGET FOR ENTIRE MODEL AT END OF TIME STEP   30, STRESS PERIOD  18
  ------------------------------------------------------------------------------

     CUMULATIVE VOLUMES      L**3       RATES FOR THIS TIME STEP      L**3/T
     ------------------                 ------------------------

           IN:                                      IN:
           ---                                      ---
               AG WELLS  =    44426692.0000                 AG WELLS  =           0.0000
      DIVERSION SEGMENTS =   384078048.0000        DIVERSION SEGMENTS =           7.3219
           GW IRRIGATION =           0.0000             GW IRRIGATION =           0.0000
           SW IRRIGATION =           0.0000             SW IRRIGATION =           0.0000
        SYSTEM LOSSES GW =           0.0000          SYSTEM LOSSES GW =           0.0000
        SYSTEM LOSSES SW =           0.0000          SYSTEM LOSSES SW =           0.0000

                TOTAL IN =   428504736.0000                  TOTAL IN =           7.3219

          OUT:                                     OUT:
          ----                                     ----
               AG WELLS  =           0.0000                 AG WELLS  =           0.0000
      DIVERSION SEGMENTS =           0.0000        DIVERSION SEGMENTS =           0.0000
           GW IRRIGATION =    44426692.0000             GW IRRIGATION =           0.0000
           SW IRRIGATION =   384085824.0000             SW IRRIGATION =           7.3221
        SYSTEM LOSSES GW =           0.0000          SYSTEM LOSSES GW =           0.0000
        SYSTEM LOSSES SW =           0.0000          SYSTEM LOSSES SW =           0.0000

               TOTAL OUT =   428512512.0000                 TOTAL OUT =           7.3221

                IN - OUT =       -7776.0000                  IN - OUT =      -1.4639E-04

     PERCENT DISCREPANCY =          -0.00         PERCENT DISCREPANCY =          -0.00



1
  VOLUMETRIC BUDGET FOR ENTIRE MODEL AT END OF TIME STEP   30, STRESS PERIOD  18
  ------------------------------------------------------------------------------

     CUMULATIVE VOLUMES      L**3       RATES FOR THIS TIME STEP      L**3/T
     ------------------                 ------------------------

           IN:                                      IN:
           ---                                      ---
             STORAGE     =    90630296.0000               STORAGE     =           0.4012
       CONSTANT HEAD     =           0.0000         CONSTANT HEAD     =           0.0000
     HEAD DEP BOUNDS     =    12801355.0000       HEAD DEP BOUNDS     =           0.2858
      STREAM LEAKAGE     =   538672832.0000        STREAM LEAKAGE     =          12.3421
        UZF RECHARGE     =      654073.0000          UZF RECHARGE     =           0.0000
               GW ET     =           0.0000                 GW ET     =           0.0000
     SURFACE LEAKAGE     =           0.0000       SURFACE LEAKAGE     =           0.0000
           AG WELLS      =           0.0000             AG WELLS      =           0.0000

                TOTAL IN =   642758528.0000                  TOTAL IN =          13.0291

          OUT:                                     OUT:
          ----                                     ----
             STORAGE     =   100054824.0000               STORAGE     =           1.8214
       CONSTANT HEAD     =           0.0000         CONSTANT HEAD     =           0.0000
     HEAD DEP BOUNDS     =    13046927.0000       HEAD DEP BOUNDS     =           0.2935
      STREAM LEAKAGE     =   483026304.0000        STREAM LEAKAGE     =          10.8423
        UZF RECHARGE     =           0.0000          UZF RECHARGE     =           0.0000
               GW ET     =     2209747.0000                 GW ET     =       7.2596E-02
     SURFACE LEAKAGE     =           0.0000       SURFACE LEAKAGE     =           0.0000
           AG WELLS      =    44426692.0000             AG WELLS      =           0.0000

               TOTAL OUT =   642764480.0000                 TOTAL OUT =          13.0298

                IN - OUT =       -5952.0000                  IN - OUT =      -7.4387E-04

     PERCENT DISCREPANCY =          -0.00         PERCENT DISCREPANCY =          -0.01






         TIME SUMMARY AT END OF TIME STEP   30 IN STRESS PERIOD   18
                    SECONDS     MINUTES      HOURS       DAYS        YEARS
                    -----------------------------------------------------------
   TIME STEP LENGTH  87667.      1461.1      24.352      1.0147     2.77799E-03
 STRESS PERIOD TIME 2.63000E+06  43833.      730.56      30.440     8.33397E-02
         TOTAL TIME 4.47965E+07 7.46608E+05  12443.      518.48      1.4195    
1
1
                            STRESS PERIOD NO.   19, LENGTH =   2630000.    
                            -----------------------------------------------

                              NUMBER OF TIME STEPS =    30

                               MULTIPLIER FOR DELT =     1.000

                            INITIAL TIME STEP SIZE =   87666.66    

 REUSING NON-PARAMETER GHB CELLS FROM LAST STRESS PERIOD

      2 GHB CELLS

 REUSING STREAM SEGMENT DATA FROM LAST STRESS PERIOD



            AREAL INFILTRATION RATE
 READING ON UNIT   19 WITH FORMAT: (10F4.0)            

            1           2           3           4           5           6           7           8           9          10
 ........................................................................................................................
   1   1.2000E-09   0.000       0.000       0.000       0.000       0.000       0.000       0.000       0.000       0.000    
   2   2.1000E-09  2.0000E-09  8.0000E-10  8.5000E-09   0.000       0.000       0.000       0.000       0.000       0.000    
   3   5.0000E-10  1.1000E-09  8.8000E-09  5.5000E-09   0.000       0.000       0.000       0.000       0.000       0.000    
   4   8.5000E-09  1.1000E-09  1.1000E-09  1.1000E-09  2.0000E-09   0.000       0.000       0.000       0.000       0.000    
   5   8.5000E-09  1.1000E-09  1.1000E-09  1.1000E-09  1.1000E-09   0.000       0.000       0.000       0.000       0.000    
   6   8.5000E-09  5.2000E-09  2.1000E-09  1.1000E-09  1.5000E-09   0.000       0.000       0.000       0.000       0.000    
   7   8.5000E-09  5.2000E-09  2.1000E-09  1.2000E-09  2.0000E-09   0.000       0.000       0.000       0.000       0.000    
   8   5.0000E-10  5.2000E-09  2.1000E-09  1.2000E-09  5.0000E-09   0.000       0.000       0.000       0.000       0.000    
   9   5.0000E-10  5.2000E-09  2.1000E-09  1.2000E-09  5.0000E-09   0.000       0.000       0.000       0.000       0.000    
  10   5.0000E-10  5.2000E-09  2.1000E-09  1.2000E-09  5.8000E-09   0.000       0.000       0.000       0.000       0.000    
  11   1.0000E-10  1.1000E-09  1.1000E-09  1.2000E-09  5.0000E-09   0.000       0.000       0.000       0.000       0.000    
  12   1.1000E-09  1.1000E-09  1.1000E-09  1.1000E-09  2.0000E-09   0.000       0.000       0.000       0.000       0.000    
  13   1.1000E-09  2.2000E-09  2.2000E-09  2.1000E-09  1.0000E-09   0.000       0.000       0.000       0.000       0.000    
  14   2.0000E-10  5.5000E-09  5.5000E-09  5.2000E-09  1.0000E-09   0.000       0.000       0.000       0.000       0.000    
  15    0.000      8.8000E-09  8.8000E-09   0.000       0.000       0.000       0.000       0.000       0.000       0.000    

                  ET RATE =  1.500000E-07

 USING ET EXTINCTION DEPTH FROM PREVIOUS STRESS PERIOD. CURRENT PERIOD IS:      19

 USING EXTINCTION WATER CONTENT FROM PREVIOUS STRESS PERIOD. CURRENT PERIOD IS:      19

 USING AIR ENTRY PRESSURE FROM PREVIOUS STRESS PERIOD. CURRENT PERIOD IS:      19

 USING ROOT PRESSURE HEAD FROM PREVIOUS STRESS PERIOD. CURRENT PERIOD IS:      19

 USING ROOT ACTIVITY FROM PREVIOUS STRESS PERIOD. CURRENT PERIOD IS:      19

 PROCESSING AG STRESS PERIOD DATA

 READING AG STRESS PERIOD DATA

 READING IRRIGATION SEGMENT

 READING IRRIGATION WELL

 READING SUPPLEMENTAL WELL

 END PROCESSING AG STRESS PERIOD DATA OPTIONS
 
 SOLVING FOR HEAD 
                                                   Max.-Head-Change                         Max.-Flux-Residual
  Residual-Control   Outer-Iter.   Inner-Iter.     Column Row Layer    Maximum-Head-Change  Column Row Layer    Maximum-Flux-Residual          L2-NORM 
          0                 1           2             1    1     1       0.2837786423E-02       1    1    1         0.1472621041E+00      0.3206527706E+00
          0                 2           2             2   13     1      -0.4137456837E-02       4   13    1        -0.2492252957E+00      0.4335247344E+00
          0                 3           2             2   13     1      -0.2959447256E-02       4   13    1        -0.1789759701E+00      0.3098568161E+00
          0                 4           2             3   13     1       0.2280711171E-03       3   13    1         0.1487928070E-01      0.2359542500E-01
          0                 5           1             3   13     1      -0.1514473603E-04       3   13    1        -0.1021787955E-02      0.1245700061E-02

    ------------------------------------------------
       NWT REQUIRED            5 OUTER ITERATIONS 
       AND A TOTAL OF          9 INNER ITERATIONS.
    ------------------------------------------------

 OUTPUT CONTROL FOR STRESS PERIOD   19   TIME STEP    1
    PRINT BUDGET
    SAVE BUDGET
 UBDSV1 SAVING "         STORAGE" ON UNIT 102 AT TIME STEP  1, STRESS PERIOD  19
 UBDSV2 SAVING "   CONSTANT HEAD" ON UNIT 102 AT TIME STEP  1, STRESS PERIOD  19
 UBDSV1 SAVING "FLOW RIGHT FACE " ON UNIT 102 AT TIME STEP  1, STRESS PERIOD  19
 UBDSV1 SAVING "FLOW FRONT FACE " ON UNIT 102 AT TIME STEP  1, STRESS PERIOD  19

  HEAD DEP BOUNDS   PERIOD   19   STEP     1
 BOUNDARY      1   LAYER   1   ROW    13   COL     1   RATE   -0.293373    
 BOUNDARY      2   LAYER   1   ROW    14   COL     9   RATE    0.285793    



 STREAM LISTING     PERIOD     19   STEP        1

 LAYER ROW COL. STREAM  RCH.  FLOW INTO     FLOW TO   FLOW OUT OF   OVRLND.     DIRECT     STREAM       STREAM     STREAM     STREAM   STREAMBED  STREAMBED
                SEG.NO.  NO.  STRM. RCH.    AQUIFER    STRM. RCH.    RUNOFF     PRECIP       ET          HEAD       DEPTH      WIDTH   CONDCTNC.   GRADIENT

   1    1    1     1     1    4.3652E+01  3.1614E-01   4.3336E+01  0.000E+00  0.000E+00  0.000E+00  1.09441E+03  1.357E+00  1.612E+01  7.255E-02  1.452E+00
   1    2    2     1     2    4.3336E+01  4.8972E-01   4.2846E+01  0.000E+00  0.000E+00  0.000E+00  1.08941E+03  1.355E+00  1.607E+01  1.125E-01  1.452E+00
   1    3    3     1     3    4.2846E+01  4.1777E-01   4.2428E+01  0.000E+00  0.000E+00  0.000E+00  1.08377E+03  1.351E+00  1.600E+01  9.601E-02  1.450E+00
   1    3    4     1     4    4.2428E+01  3.8480E-01   4.2043E+01  0.000E+00  0.000E+00  0.000E+00  1.07876E+03  1.349E+00  1.594E+01  8.849E-02  1.450E+00
   1    4    5     2     1    4.0043E+01  3.5862E-01   3.9685E+01  0.000E+00  0.000E+00  0.000E+00  1.07353E+03  1.598E+00  1.200E+01  7.800E-02  1.533E+00
   1    5    6     2     2    3.9685E+01  2.7540E-01   3.9409E+01  0.000E+00  0.000E+00  0.000E+00  1.06810E+03  1.590E+00  1.200E+01  6.000E-02  1.530E+00
   1    6    6     2     3    3.9409E+01  2.7500E-01   3.9134E+01  0.000E+00  0.000E+00  0.000E+00  1.06338E+03  1.583E+00  1.200E+01  6.000E-02  1.528E+00
   1    7    6     2     4    3.9134E+01  2.7461E-01   3.8860E+01  0.000E+00  0.000E+00  0.000E+00  1.05865E+03  1.577E+00  1.200E+01  6.000E-02  1.526E+00
   1    8    6     2     5    3.8860E+01  2.7421E-01   3.8585E+01  0.000E+00  0.000E+00  0.000E+00  1.05393E+03  1.570E+00  1.200E+01  6.000E-02  1.523E+00
   1    3    5     3     1    2.0000E+00  2.8252E-01   1.7175E+00  0.000E+00  0.000E+00  0.000E+00  1.07555E+03  1.909E+00  9.636E+00  7.227E-02  1.955E+00
   1    3    6     3     2    1.7175E+00  2.4905E-01   1.4684E+00  0.000E+00  0.000E+00  0.000E+00  1.07264E+03  1.727E+00  8.909E+00  6.682E-02  1.864E+00
   1    3    7     3     3    1.4684E+00  1.9718E-01   1.2712E+00  0.000E+00  0.000E+00  0.000E+00  1.06987E+03  1.555E+00  8.218E+00  5.547E-02  1.777E+00
   1    4    8     3     4    1.2712E+00  2.2567E-01   1.0456E+00  0.000E+00  0.000E+00  0.000E+00  1.06682E+03  1.364E+00  7.455E+00  6.709E-02  1.682E+00
   1    5    8     3     5    1.0456E+00  1.5790E-01   8.8768E-01  0.000E+00  0.000E+00  0.000E+00  1.06362E+03  1.164E+00  6.655E+00  4.991E-02  1.582E+00
   1    6    8     3     6    8.8768E-01  5.5980E-02   8.3170E-01  0.000E+00  0.000E+00  0.000E+00  1.06158E+03  1.036E+00  6.145E+00  1.844E-02  1.518E+00
   1    5   10     4     1    1.0000E+01  9.0919E-02   9.9091E+00  0.000E+00  0.000E+00  0.000E+00  1.07836E+03  6.368E-01  1.000E+01  2.500E-02  1.212E+00
   1    5    9     4     2    9.9091E+00  1.8158E-01   9.7275E+00  0.000E+00  0.000E+00  0.000E+00  1.07154E+03  6.315E-01  1.000E+01  5.000E-02  1.211E+00
   1    6    8     4     3    9.7275E+00  1.2689E-01   9.6006E+00  0.000E+00  0.000E+00  0.000E+00  1.06381E+03  6.256E-01  1.000E+01  3.500E-02  1.209E+00
   1    6    8     5     1    1.0432E+01  2.2686E-01   1.0205E+01  0.000E+00  0.000E+00  0.000E+00  1.05868E+03  6.790E-01  1.542E+01  6.166E-02  1.226E+00
   1    7    7     5     2    1.0205E+01  2.7894E-01   9.9265E+00  0.000E+00  0.000E+00  0.000E+00  1.05417E+03  6.732E-01  1.519E+01  7.594E-02  1.224E+00
   1    8    7     5     3    9.9265E+00  1.9221E-01   9.7343E+00  0.000E+00  0.000E+00  0.000E+00  1.04992E+03  6.676E-01  1.497E+01  5.241E-02  1.223E+00
   1    8    6     5     4    9.7343E+00  1.3577E-01   9.5985E+00  0.000E+00  0.000E+00  0.000E+00  1.04691E+03  6.637E-01  1.482E+01  3.706E-02  1.221E+00
   1    9    6     6     1    2.7899E+01  2.5803E-01   2.7641E+01  0.000E+00  0.000E+00  0.000E+00  1.04403E+03  1.301E+00  1.200E+01  6.000E-02  1.434E+00
   1   10    7     6     2    2.7641E+01  2.5760E-01   2.7383E+01  0.000E+00  0.000E+00  0.000E+00  1.03947E+03  1.293E+00  1.200E+01  6.000E-02  1.431E+00
   1   11    7     6     3    2.7383E+01  2.5716E-01   2.7126E+01  0.000E+00  0.000E+00  0.000E+00  1.03492E+03  1.286E+00  1.200E+01  6.000E-02  1.429E+00
   1   12    7     6     4    2.7126E+01  2.5672E-01   2.6870E+01  0.000E+00  0.000E+00  0.000E+00  1.03037E+03  1.279E+00  1.200E+01  6.000E-02  1.426E+00
   1   13    7     6     5    2.6870E+01  5.2033E-04   2.6869E+01  0.000E+00  0.000E+00  0.000E+00  1.02718E+03  1.275E+00  1.200E+01  2.400E-02  7.227E-03
   1   14    9     7     1    1.5000E+02  1.3363E+00   1.4866E+02  0.000E+00  0.000E+00  0.000E+00  1.03987E+03  2.288E+00  5.529E+01  5.593E-01  7.964E-01
   1   13    8     7     2    1.4866E+02  1.8177E+00   1.4685E+02  0.000E+00  0.000E+00  0.000E+00  1.03478E+03  2.279E+00  5.526E+01  6.148E-01  9.855E-01
   1   13    7     7     3    1.4685E+02  1.4116E+00   1.4543E+02  0.000E+00  0.000E+00  0.000E+00  1.02969E+03  2.271E+00  5.522E+01  5.585E-01  8.425E-01
   1   13    6     8     1    1.7230E+02  8.5486E-01   1.7145E+02  0.000E+00  0.000E+00  0.000E+00  1.02484E+03  2.964E+00  4.298E+01  4.380E-01  6.506E-01
   1   13    5     8     2    1.7145E+02  1.0255E-01   1.7135E+02  0.000E+00  0.000E+00  0.000E+00  1.01859E+03  2.961E+00  4.294E+01  4.376E-01  7.812E-02
   1   13    4     8     3    1.7135E+02 -2.8884E+00   1.7423E+02  0.000E+00  0.000E+00  0.000E+00  1.01235E+03  2.970E+00  4.307E+01  4.389E+00 -2.194E-01
   1   13    3     8     4    1.7423E+02 -3.9689E+00   1.7820E+02  0.000E+00  0.000E+00  0.000E+00  1.00612E+03  2.992E+00  4.339E+01  4.421E+00 -2.992E-01
   1   13    2     8     5    1.7820E+02 -2.9109E+00   1.8111E+02  0.000E+00  0.000E+00  0.000E+00  9.99889E+02  3.014E+00  4.370E+01  4.454E+00 -2.179E-01
   1   13    1     8     6    1.8111E+02 -2.1903E+00   1.8330E+02  0.000E+00  0.000E+00  0.000E+00  9.94905E+02  3.030E+00  4.393E+01  2.686E+00 -2.718E-01
   1    8    6     9     1    2.0285E+01  0.0000E+00   2.0285E+01  0.000E+00  0.000E+00  0.000E+00  1.08221E+03  3.464E+00  4.000E+00  0.000E+00  2.155E+00
   1    8    5     9     2    2.0285E+01  0.0000E+00   2.0285E+01  0.000E+00  0.000E+00  0.000E+00  1.08171E+03  3.464E+00  4.000E+00  0.000E+00  2.155E+00



 UBDSV3 SAVING "           GW ET" ON UNIT  61 AT TIME STEP  1, STRESS PERIOD  19
 UBDSV3 SAVING "    UZF RECHARGE" ON UNIT  61 AT TIME STEP  1, STRESS PERIOD  19
 UBDSV3 SAVING " SURFACE LEAKAGE" ON UNIT  61 AT TIME STEP  1, STRESS PERIOD  19
 UBDSV3 SAVING "       HORT+DUNN" ON UNIT  61 AT TIME STEP  1, STRESS PERIOD  19
 UBDSV3 SAVING "  STORAGE CHANGE" ON UNIT  61 AT TIME STEP  1, STRESS PERIOD  19


UNSATURATED ZONE PACKAGE VOLUMETRIC BUDGET FOR  TIME STEP     1 STRESS PERIOD   19
  ------------------------------------------------------------------------------



     CUMULATIVE VOLUMES      L**3       RATES FOR THIS TIME STEP      L**3/T
     ------------------                 ------------------------

           IN:                                      IN:
           ---                                      ---
        INFILTRATION =   627809689.0623          INFILTRATION =          24.6929

          OUT:                                     OUT:
          ----                                     ----
              UZF ET =   569199171.1362                UZF ET =          26.6170
        UZF RECHARGE =      654072.9065          UZF RECHARGE =       0.0000E+00

            IN - OUT =    57956445.0195              IN - OUT =          -1.9241

          STORAGE:                                 STORAGE:
          --------                                 --------
      STORAGE CHANGE =    57957037.3109        STORAGE CHANGE =          -1.9241

 PERCENT DISCREPANCY IS DIFFERENCE BETWEEN IN-OUT MINUS CHANGE IN STORAGE
 DIVIDED BY THE AVERAGE OF IN AND OUT TIMES 100

 PERCENT DISCREPANCY =          -0.00     PERCENT DISCREPANCY =           0.00






 

            AG WELLS      PERIOD   19   STEP   1
 AG WELL      1   LAYER   1   ROW     6   COL     4   RATE     0.00000    
 AG WELL      2   LAYER   1   ROW     6   COL     5   RATE     0.00000    
 AG WELL      3   LAYER   1   ROW     7   COL     4   RATE     0.00000    
 AG WELL      4   LAYER   1   ROW     7   COL     5   RATE     0.00000    
 AG WELL      5   LAYER   1   ROW     8   COL     4   RATE     0.00000    
 AG WELL      6   LAYER   1   ROW     8   COL     5   RATE     0.00000    
 
 

   DIVERSION SEGMENTS     PERIOD   19   STEP   1
 SEGMENT      9   RATE     20.2850    
 
 

        SW IRRIGATION     PERIOD   19   STEP   1
 SEGMENT      9   ROW     6   COL     4   RATE     3.38090    
 SEGMENT      9   ROW     6   COL     5   RATE     3.38090    
 SEGMENT      9   ROW     7   COL     4   RATE     3.38090    
 SEGMENT      9   ROW     7   COL     5   RATE     3.38090    
 SEGMENT      9   ROW     8   COL     4   RATE     3.38090    
 SEGMENT      9   ROW     8   COL     5   RATE     3.38090    
 
 

        GW IRRIGATION     PERIOD   19   STEP   1
 AG WELL      1   ROW     6   COL     4   RATE     0.00000    
 AG WELL      2   ROW     6   COL     5   RATE     0.00000    
 AG WELL      3   ROW     7   COL     4   RATE     0.00000    
 AG WELL      4   ROW     7   COL     5   RATE     0.00000    
 AG WELL      5   ROW     8   COL     4   RATE     0.00000    
 AG WELL      6   ROW     8   COL     5   RATE     0.00000    
 
1
  VOLUMETRIC BUDGET FOR ENTIRE MODEL AT END OF TIME STEP    1, STRESS PERIOD  19
  ------------------------------------------------------------------------------

     CUMULATIVE VOLUMES      L**3       RATES FOR THIS TIME STEP      L**3/T
     ------------------                 ------------------------

           IN:                                      IN:
           ---                                      ---
               AG WELLS  =    44426692.0000                 AG WELLS  =           0.0000
      DIVERSION SEGMENTS =   385856352.0000        DIVERSION SEGMENTS =          20.2850
           GW IRRIGATION =           0.0000             GW IRRIGATION =           0.0000
           SW IRRIGATION =           0.0000             SW IRRIGATION =           0.0000
        SYSTEM LOSSES GW =           0.0000          SYSTEM LOSSES GW =           0.0000
        SYSTEM LOSSES SW =           0.0000          SYSTEM LOSSES SW =           0.0000

                TOTAL IN =   430283040.0000                  TOTAL IN =          20.2850

          OUT:                                     OUT:
          ----                                     ----
               AG WELLS  =           0.0000                 AG WELLS  =           0.0000
      DIVERSION SEGMENTS =           0.0000        DIVERSION SEGMENTS =           0.0000
           GW IRRIGATION =    44426692.0000             GW IRRIGATION =           0.0000
           SW IRRIGATION =   385864192.0000             SW IRRIGATION =          20.2854
        SYSTEM LOSSES GW =           0.0000          SYSTEM LOSSES GW =           0.0000
        SYSTEM LOSSES SW =           0.0000          SYSTEM LOSSES SW =           0.0000

               TOTAL OUT =   430290880.0000                 TOTAL OUT =          20.2854

                IN - OUT =       -7840.0000                  IN - OUT =      -4.0436E-04

     PERCENT DISCREPANCY =          -0.00         PERCENT DISCREPANCY =          -0.00



1
  VOLUMETRIC BUDGET FOR ENTIRE MODEL AT END OF TIME STEP    1, STRESS PERIOD  19
  ------------------------------------------------------------------------------

     CUMULATIVE VOLUMES      L**3       RATES FOR THIS TIME STEP      L**3/T
     ------------------                 ------------------------

           IN:                                      IN:
           ---                                      ---
             STORAGE     =    90784272.0000               STORAGE     =           1.7564
       CONSTANT HEAD     =           0.0000         CONSTANT HEAD     =           0.0000
     HEAD DEP BOUNDS     =    12826410.0000       HEAD DEP BOUNDS     =           0.2858
      STREAM LEAKAGE     =   539726656.0000        STREAM LEAKAGE     =          12.0207
        UZF RECHARGE     =      654073.0000          UZF RECHARGE     =           0.0000
               GW ET     =           0.0000                 GW ET     =           0.0000
     SURFACE LEAKAGE     =           0.0000       SURFACE LEAKAGE     =           0.0000
           AG WELLS      =           0.0000             AG WELLS      =           0.0000

                TOTAL IN =   643991424.0000                  TOTAL IN =          14.0629

          OUT:                                     OUT:
          ----                                     ----
             STORAGE     =   100201744.0000               STORAGE     =           1.6759
       CONSTANT HEAD     =           0.0000         CONSTANT HEAD     =           0.0000
     HEAD DEP BOUNDS     =    13072646.0000       HEAD DEP BOUNDS     =           0.2934
      STREAM LEAKAGE     =   484074656.0000        STREAM LEAKAGE     =          11.9584
        UZF RECHARGE     =           0.0000          UZF RECHARGE     =           0.0000
               GW ET     =     2221601.5000                 GW ET     =           0.1352
     SURFACE LEAKAGE     =           0.0000       SURFACE LEAKAGE     =           0.0000
           AG WELLS      =    44426692.0000             AG WELLS      =           0.0000

               TOTAL OUT =   643997376.0000                 TOTAL OUT =          14.0628

                IN - OUT =       -5952.0000                  IN - OUT =       7.1526E-05

     PERCENT DISCREPANCY =          -0.00         PERCENT DISCREPANCY =           0.00






         TIME SUMMARY AT END OF TIME STEP    1 IN STRESS PERIOD   19
                    SECONDS     MINUTES      HOURS       DAYS        YEARS
                    -----------------------------------------------------------
   TIME STEP LENGTH  87667.      1461.1      24.352      1.0147     2.77799E-03
 STRESS PERIOD TIME  87667.      1461.1      24.352      1.0147     2.77799E-03
         TOTAL TIME 4.48841E+07 7.48069E+05  12468.      519.49      1.4223    
1
 
 SOLVING FOR HEAD 
                                                   Max.-Head-Change                         Max.-Flux-Residual
  Residual-Control   Outer-Iter.   Inner-Iter.     Column Row Layer    Maximum-Head-Change  Column Row Layer    Maximum-Flux-Residual          L2-NORM 
          0                 1           2             1    1     1       0.2826369921E-02       1    1    1         0.1466689757E+00      0.3391519169E+00
          0                 2           2             2   13     1      -0.4178043239E-02       4   13    1        -0.2567362762E+00      0.4429874353E+00
          0                 3           2             2   13     1      -0.2985439865E-02       4   13    1        -0.1800944763E+00      0.3153494026E+00
          0                 4           1             2   13     1       0.9493236284E-04       2   13    1         0.5649128914E-02      0.1038029349E-01

    ------------------------------------------------
       NWT REQUIRED            4 OUTER ITERATIONS 
       AND A TOTAL OF          7 INNER ITERATIONS.
    ------------------------------------------------

 NO OUTPUT CONTROL FOR STRESS PERIOD   19   TIME STEP    2
 
 SOLVING FOR HEAD 
                                                   Max.-Head-Change                         Max.-Flux-Residual
  Residual-Control   Outer-Iter.   Inner-Iter.     Column Row Layer    Maximum-Head-Change  Column Row Layer    Maximum-Flux-Residual          L2-NORM 
          0                 1           2             1    1     1       0.2824465802E-02       4   13    1         0.1598648920E+00      0.3786884037E+00
          0                 2           2             2   13     1      -0.4714067098E-02       4   13    1        -0.2997981613E+00      0.5074772838E+00
          0                 3           2             4   13     1      -0.2801457097E-02       4   13    1        -0.1655035812E+00      0.2611735053E+00
          0                 4           2             2   13     1      -0.4067234944E-03       2   13    1        -0.2354525196E-01      0.4168522407E-01
          0                 5           1             7   13     1      -0.1025184254E-03       7   13    1        -0.5698201292E-02      0.9516150951E-02
          0                 6           2             4   13     1      -0.1641876928E-03       4   13    1        -0.9681850053E-02      0.1716266165E-01
          0                 7           1             4   13     1       0.1104847528E-04       4   13    1         0.6692318202E-03      0.1163514212E-02

    ------------------------------------------------
       NWT REQUIRED            7 OUTER ITERATIONS 
       AND A TOTAL OF         12 INNER ITERATIONS.
    ------------------------------------------------

 NO OUTPUT CONTROL FOR STRESS PERIOD   19   TIME STEP    3
 
 SOLVING FOR HEAD 
                                                   Max.-Head-Change                         Max.-Flux-Residual
  Residual-Control   Outer-Iter.   Inner-Iter.     Column Row Layer    Maximum-Head-Change  Column Row Layer    Maximum-Flux-Residual          L2-NORM 
          0                 1           2             4   13     1       0.3259160882E-02       4   13    1         0.1882284772E+00      0.4334587417E+00
          0                 2           2             4   13     1      -0.4959715410E-02       4   13    1        -0.2929530294E+00      0.5225033252E+00
          0                 3           2             4   13     1      -0.2388089006E-02       4   13    1        -0.1408794382E+00      0.2470345940E+00
          0                 4           2             4   13     1      -0.4131768175E-03       4   13    1        -0.2437354948E-01      0.4283421068E-01
          0                 5           1             7   13     1      -0.9835964904E-04       7   13    1        -0.5777548639E-02      0.9161599949E-02

    ------------------------------------------------
       NWT REQUIRED            5 OUTER ITERATIONS 
       AND A TOTAL OF          9 INNER ITERATIONS.
    ------------------------------------------------

 NO OUTPUT CONTROL FOR STRESS PERIOD   19   TIME STEP    4
 
 SOLVING FOR HEAD 
                                                   Max.-Head-Change                         Max.-Flux-Residual
  Residual-Control   Outer-Iter.   Inner-Iter.     Column Row Layer    Maximum-Head-Change  Column Row Layer    Maximum-Flux-Residual          L2-NORM 
          0                 1           2             4   13     1       0.3734664366E-02       4   13    1         0.2154813635E+00      0.4724086278E+00
          0                 2           2             4   13     1      -0.5015334749E-02       4   13    1        -0.2962276832E+00      0.5286976956E+00
          0                 3           2             4   13     1      -0.2411792524E-02       4   13    1        -0.1422773458E+00      0.2494053708E+00
          0                 4           2             3   13     1      -0.5681223299E-03       3   13    1        -0.3321369546E-01      0.4905007825E-01
          0                 5           2             7   13     1      -0.1020901402E-03       7   13    1        -0.5996801528E-02      0.9167807963E-02
          0                 6           2             4   13     1      -0.1598308931E-03       4   13    1        -0.9415820500E-02      0.1675651362E-01
          0                 7           1             4   13     1       0.1081278879E-04       4   13    1         0.6543798163E-03      0.1117941351E-02

    ------------------------------------------------
       NWT REQUIRED            7 OUTER ITERATIONS 
       AND A TOTAL OF         13 INNER ITERATIONS.
    ------------------------------------------------

 NO OUTPUT CONTROL FOR STRESS PERIOD   19   TIME STEP    5
 
 SOLVING FOR HEAD 
                                                   Max.-Head-Change                         Max.-Flux-Residual
  Residual-Control   Outer-Iter.   Inner-Iter.     Column Row Layer    Maximum-Head-Change  Column Row Layer    Maximum-Flux-Residual          L2-NORM 
          0                 1           2             4   13     1       0.4183540870E-02       4   13    1         0.2411318446E+00      0.5044357018E+00
          0                 2           2             4   13     1      -0.5068271610E-02       4   13    1        -0.2992586510E+00      0.5394291584E+00
          0                 3           2             3   13     1      -0.2474016917E-02       3   13    1        -0.1439732743E+00      0.2593101346E+00
          0                 4           2             4   13     1      -0.4042326050E-03       4   13    1        -0.2383695824E-01      0.4129352017E-01
          0                 5           1             7   13     1      -0.1008760987E-03       7   13    1        -0.5925305351E-02      0.9469142451E-02
          0                 6           2             4   13     1      -0.1604921245E-03       4   13    1        -0.9455439804E-02      0.1679476136E-01
          0                 7           1             4   13     1       0.1079680175E-04       4   13    1         0.6534145705E-03      0.1118458891E-02

    ------------------------------------------------
       NWT REQUIRED            7 OUTER ITERATIONS 
       AND A TOTAL OF         12 INNER ITERATIONS.
    ------------------------------------------------

 NO OUTPUT CONTROL FOR STRESS PERIOD   19   TIME STEP    6
 
 SOLVING FOR HEAD 
                                                   Max.-Head-Change                         Max.-Flux-Residual
  Residual-Control   Outer-Iter.   Inner-Iter.     Column Row Layer    Maximum-Head-Change  Column Row Layer    Maximum-Flux-Residual          L2-NORM 
          0                 1           2             4   13     1       0.4584256766E-02       4   13    1         0.2642804840E+00      0.5318221646E+00
          0                 2           2             4   13     1      -0.5117819473E-02       4   13    1        -0.3020203652E+00      0.5377609869E+00
          0                 3           2             4   13     1      -0.2410982737E-02       4   13    1        -0.1420983656E+00      0.2491753342E+00
          0                 4           2             4   13     1      -0.4056966363E-03       4   13    1        -0.2391049676E-01      0.4203625417E-01
          0                 5           1             7   13     1      -0.9968668319E-04       7   13    1        -0.5855220602E-02      0.9440569196E-02

    ------------------------------------------------
       NWT REQUIRED            5 OUTER ITERATIONS 
       AND A TOTAL OF          9 INNER ITERATIONS.
    ------------------------------------------------

 NO OUTPUT CONTROL FOR STRESS PERIOD   19   TIME STEP    7
 
 SOLVING FOR HEAD 
                                                   Max.-Head-Change                         Max.-Flux-Residual
  Residual-Control   Outer-Iter.   Inner-Iter.     Column Row Layer    Maximum-Head-Change  Column Row Layer    Maximum-Flux-Residual          L2-NORM 
          0                 1           2             4   13     1       0.4930369593E-02       4   13    1         0.2842655964E+00      0.5567905970E+00
          0                 2           2             4   13     1      -0.4637446819E-02       4   13    1        -0.2737424967E+00      0.4896835243E+00
          0                 3           2             4   13     1      -0.3548912176E-02       4   13    1        -0.2091115836E+00      0.3659835400E+00
          0                 4           2             4   13     1       0.1567369349E-03       4   13    1         0.9483208695E-02      0.1711858418E-01
          0                 5           2             4   13     1      -0.1711427169E-03       4   13    1        -0.1065258867E-01      0.1883473654E-01
          0                 6           1             4   13     1       0.1955043955E-05       4   13    1         0.1245320345E-03      0.2047771126E-03

    ------------------------------------------------
       NWT REQUIRED            6 OUTER ITERATIONS 
       AND A TOTAL OF         11 INNER ITERATIONS.
    ------------------------------------------------

 NO OUTPUT CONTROL FOR STRESS PERIOD   19   TIME STEP    8
 
 SOLVING FOR HEAD 
                                                   Max.-Head-Change                         Max.-Flux-Residual
  Residual-Control   Outer-Iter.   Inner-Iter.     Column Row Layer    Maximum-Head-Change  Column Row Layer    Maximum-Flux-Residual          L2-NORM 
          0                 1           2             4   13     1       0.5258926275E-02       4   13    1         0.3032303016E+00      0.5814975250E+00
          0                 2           2             4   13     1      -0.4679572347E-02       4   13    1        -0.2762358180E+00      0.4936229795E+00
          0                 3           2             4   13     1      -0.3540388198E-02       4   13    1        -0.2086093505E+00      0.3651307990E+00
          0                 4           2             4   13     1       0.1543157535E-03       4   13    1         0.9336547586E-02      0.1684127891E-01
          0                 5           2             4   13     1      -0.1748655507E-03       4   13    1        -0.1088433372E-01      0.1924819579E-01
          0                 6           1             4   13     1       0.2002038087E-05       4   13    1         0.1275366403E-03      0.2093266884E-03

    ------------------------------------------------
       NWT REQUIRED            6 OUTER ITERATIONS 
       AND A TOTAL OF         11 INNER ITERATIONS.
    ------------------------------------------------

 NO OUTPUT CONTROL FOR STRESS PERIOD   19   TIME STEP    9
 
 SOLVING FOR HEAD 
                                                   Max.-Head-Change                         Max.-Flux-Residual
  Residual-Control   Outer-Iter.   Inner-Iter.     Column Row Layer    Maximum-Head-Change  Column Row Layer    Maximum-Flux-Residual          L2-NORM 
          0                 1           2             4   13     1       0.5555977225E-02       4   13    1         0.3203691094E+00      0.6047151080E+00
          0                 2           2             4   13     1      -0.4717029217E-02       4   13    1        -0.2784521527E+00      0.4971835030E+00
          0                 3           2             4   13     1      -0.3523890199E-02       4   13    1        -0.2076381130E+00      0.3634605336E+00
          0                 4           2             4   13     1       0.1484845903E-03       4   13    1         0.8983446714E-02      0.1619311699E-01
          0                 5           2             4   13     1      -0.1841851973E-03       4   13    1        -0.1146452129E-01      0.2027798112E-01
          0                 6           1             4   13     1       0.2103424998E-05       4   13    1         0.1339854089E-03      0.2205221347E-03

    ------------------------------------------------
       NWT REQUIRED            6 OUTER ITERATIONS 
       AND A TOTAL OF         11 INNER ITERATIONS.
    ------------------------------------------------

 NO OUTPUT CONTROL FOR STRESS PERIOD   19   TIME STEP   10
 
 SOLVING FOR HEAD 
                                                   Max.-Head-Change                         Max.-Flux-Residual
  Residual-Control   Outer-Iter.   Inner-Iter.     Column Row Layer    Maximum-Head-Change  Column Row Layer    Maximum-Flux-Residual          L2-NORM 
          0                 1           2             4   13     1       0.5824753251E-02       4   13    1         0.3358696498E+00      0.6264478704E+00
          0                 2           2             4   13     1      -0.4749110725E-02       4   13    1        -0.2803502470E+00      0.5002792580E+00
          0                 3           2             4   13     1      -0.3491002651E-02       4   13    1        -0.2057026732E+00      0.3601085769E+00
          0                 4           2             4   13     1       0.1415755769E-03       4   13    1         0.8565158393E-02      0.1533572992E-01
          0                 5           2             4   13     1      -0.1946660414E-03       4   13    1        -0.1211706819E-01      0.2143909412E-01
          0                 6           1             4   13     1       0.2226655453E-05       4   13    1         0.1418380671E-03      0.2337701854E-03

    ------------------------------------------------
       NWT REQUIRED            6 OUTER ITERATIONS 
       AND A TOTAL OF         11 INNER ITERATIONS.
    ------------------------------------------------

 NO OUTPUT CONTROL FOR STRESS PERIOD   19   TIME STEP   11
 
 SOLVING FOR HEAD 
                                                   Max.-Head-Change                         Max.-Flux-Residual
  Residual-Control   Outer-Iter.   Inner-Iter.     Column Row Layer    Maximum-Head-Change  Column Row Layer    Maximum-Flux-Residual          L2-NORM 
          0                 1           2             4   13     1       0.6066182653E-02       4   13    1         0.3497863943E+00      0.6466025368E+00
          0                 2           2             4   13     1      -0.4775040575E-02       4   13    1        -0.2818843933E+00      0.5028274339E+00
          0                 3           2             4   13     1      -0.3504939967E-02       4   13    1        -0.2065227543E+00      0.3615605073E+00
          0                 4           2             4   13     1       0.1459521092E-03       4   13    1         0.8830162335E-02      0.1578781560E-01
          0                 5           2             4   13     1      -0.1878599894E-03       4   13    1        -0.1169337225E-01      0.2068551006E-01
          0                 6           1             4   13     1       0.2135942758E-05       4   13    1         0.1360541219E-03      0.2244410206E-03

    ------------------------------------------------
       NWT REQUIRED            6 OUTER ITERATIONS 
       AND A TOTAL OF         11 INNER ITERATIONS.
    ------------------------------------------------

 NO OUTPUT CONTROL FOR STRESS PERIOD   19   TIME STEP   12
 
 SOLVING FOR HEAD 
                                                   Max.-Head-Change                         Max.-Flux-Residual
  Residual-Control   Outer-Iter.   Inner-Iter.     Column Row Layer    Maximum-Head-Change  Column Row Layer    Maximum-Flux-Residual          L2-NORM 
          0                 1           2             4   13     1       0.6284831187E-02       4   13    1         0.3623841717E+00      0.6653712296E+00
          0                 2           2             4   13     1      -0.4803416759E-02       4   13    1        -0.2835613813E+00      0.5056670342E+00
          0                 3           2             4   13     1      -0.3496212492E-02       4   13    1        -0.2059948843E+00      0.3607659480E+00
          0                 4           2             4   13     1       0.1435022508E-03       4   13    1         0.8692266591E-02      0.1541880600E-01
          0                 5           2             4   13     1      -0.1916952877E-03       4   13    1        -0.1193335442E-01      0.2110408607E-01
          0                 6           1             4   13     1       0.2177939973E-05       4   13    1         0.1394237397E-03      0.2173147442E-03

    ------------------------------------------------
       NWT REQUIRED            6 OUTER ITERATIONS 
       AND A TOTAL OF         11 INNER ITERATIONS.
    ------------------------------------------------

 NO OUTPUT CONTROL FOR STRESS PERIOD   19   TIME STEP   13
 
 SOLVING FOR HEAD 
                                                   Max.-Head-Change                         Max.-Flux-Residual
  Residual-Control   Outer-Iter.   Inner-Iter.     Column Row Layer    Maximum-Head-Change  Column Row Layer    Maximum-Flux-Residual          L2-NORM 
          0                 1           2             4   13     1       0.6482726327E-02       4   13    1         0.3737806702E+00      0.6828172737E+00
          0                 2           2             4   13     1      -0.4824351415E-02       4   13    1        -0.2847989259E+00      0.5078087138E+00
          0                 3           2             4   13     1      -0.3509973390E-02       4   13    1        -0.2068046090E+00      0.3621983156E+00
          0                 4           2             4   13     1       0.1478857692E-03       4   13    1         0.8957738591E-02      0.1587193051E-01
          0                 5           2             4   13     1      -0.1848389144E-03       4   13    1        -0.1150654775E-01      0.2034437766E-01
          0                 6           1             4   13     1       0.2107787008E-05       4   13    1         0.1349380764E-03      0.2095038376E-03

    ------------------------------------------------
       NWT REQUIRED            6 OUTER ITERATIONS 
       AND A TOTAL OF         11 INNER ITERATIONS.
    ------------------------------------------------

 NO OUTPUT CONTROL FOR STRESS PERIOD   19   TIME STEP   14
 
 SOLVING FOR HEAD 
                                                   Max.-Head-Change                         Max.-Flux-Residual
  Residual-Control   Outer-Iter.   Inner-Iter.     Column Row Layer    Maximum-Head-Change  Column Row Layer    Maximum-Flux-Residual          L2-NORM 
          0                 1           2             4   13     1       0.6662027697E-02       4   13    1         0.3841013049E+00      0.6990216663E+00
          0                 2           2             4   13     1      -0.4843375973E-02       4   13    1        -0.2859230457E+00      0.5097915032E+00
          0                 3           2             4   13     1      -0.3523402021E-02       4   13    1        -0.2075947450E+00      0.3635989089E+00
          0                 4           2             4   13     1       0.1522350181E-03       4   13    1         0.9221136102E-02      0.1631489013E-01
          0                 5           2             4   13     1      -0.1780154927E-03       4   13    1        -0.1108177660E-01      0.1958166816E-01
          0                 6           1             4   13     1       0.2027046751E-05       4   13    1         0.1297633216E-03      0.2022230637E-03

    ------------------------------------------------
       NWT REQUIRED            6 OUTER ITERATIONS 
       AND A TOTAL OF         11 INNER ITERATIONS.
    ------------------------------------------------

 NO OUTPUT CONTROL FOR STRESS PERIOD   19   TIME STEP   15
 
 SOLVING FOR HEAD 
                                                   Max.-Head-Change                         Max.-Flux-Residual
  Residual-Control   Outer-Iter.   Inner-Iter.     Column Row Layer    Maximum-Head-Change  Column Row Layer    Maximum-Flux-Residual          L2-NORM 
          0                 1           2             4   13     1       0.6824621316E-02       4   13    1         0.3934554391E+00      0.7140644479E+00
          0                 2           2             4   13     1      -0.4860686146E-02       4   13    1        -0.2869453012E+00      0.5116350523E+00
          0                 3           2             4   13     1      -0.3536573585E-02       4   13    1        -0.2083698105E+00      0.3649699120E+00
          0                 4           2             4   13     1       0.1565522894E-03       4   13    1         0.9482586232E-02      0.1677137574E-01
          0                 5           2             4   13     1      -0.1712206167E-03       4   13    1        -0.1065878075E-01      0.1883887066E-01
          0                 6           1             4   13     1       0.1951343847E-05       4   13    1         0.1249203897E-03      0.1942723107E-03

    ------------------------------------------------
       NWT REQUIRED            6 OUTER ITERATIONS 
       AND A TOTAL OF         11 INNER ITERATIONS.
    ------------------------------------------------

 NO OUTPUT CONTROL FOR STRESS PERIOD   19   TIME STEP   16
 
 SOLVING FOR HEAD 
                                                   Max.-Head-Change                         Max.-Flux-Residual
  Residual-Control   Outer-Iter.   Inner-Iter.     Column Row Layer    Maximum-Head-Change  Column Row Layer    Maximum-Flux-Residual          L2-NORM 
          0                 1           2             4   13     1       0.6972050020E-02       4   13    1         0.4019328662E+00      0.7280134241E+00
          0                 2           2             4   13     1      -0.4876434598E-02       4   13    1        -0.2878749063E+00      0.5133419306E+00
          0                 3           2             4   13     1      -0.3549472856E-02       4   13    1        -0.2091287944E+00      0.3663169046E+00
          0                 4           2             4   13     1       0.1608145112E-03       4   13    1         0.9740672953E-02      0.1721820506E-01
          0                 5           2             4   13     1      -0.1644477195E-03       4   13    1        -0.1023715500E-01      0.1808979863E-01
          0                 6           1             4   13     1       0.1882514910E-05       4   13    1         0.1205246390E-03      0.1860614226E-03

    ------------------------------------------------
       NWT REQUIRED            6 OUTER ITERATIONS 
       AND A TOTAL OF         11 INNER ITERATIONS.
    ------------------------------------------------

 NO OUTPUT CONTROL FOR STRESS PERIOD   19   TIME STEP   17
 
 SOLVING FOR HEAD 
                                                   Max.-Head-Change                         Max.-Flux-Residual
  Residual-Control   Outer-Iter.   Inner-Iter.     Column Row Layer    Maximum-Head-Change  Column Row Layer    Maximum-Flux-Residual          L2-NORM 
          0                 1           2             4   13     1       0.7105839812E-02       4   13    1         0.4096217208E+00      0.7409498690E+00
          0                 2           2             4   13     1      -0.4896047443E-02       4   13    1        -0.2890314691E+00      0.5154524572E+00
          0                 3           2             4   13     1      -0.3549215841E-02       4   13    1        -0.2091132769E+00      0.3663061260E+00
          0                 4           2             4   13     1       0.1620135538E-03       4   13    1         0.9813322279E-02      0.1732650277E-01
          0                 5           2             4   13     1      -0.1623699031E-03       4   13    1        -0.1010782020E-01      0.1785948879E-01
          0                 6           1             4   13     1       0.1853635313E-05       4   13    1         0.1186686941E-03      0.1841218226E-03

    ------------------------------------------------
       NWT REQUIRED            6 OUTER ITERATIONS 
       AND A TOTAL OF         11 INNER ITERATIONS.
    ------------------------------------------------

 NO OUTPUT CONTROL FOR STRESS PERIOD   19   TIME STEP   18
 
 SOLVING FOR HEAD 
                                                   Max.-Head-Change                         Max.-Flux-Residual
  Residual-Control   Outer-Iter.   Inner-Iter.     Column Row Layer    Maximum-Head-Change  Column Row Layer    Maximum-Flux-Residual          L2-NORM 
          0                 1           2             4   13     1       0.7227314567E-02       4   13    1         0.4165991649E+00      0.7529450889E+00
          0                 2           2             4   13     1      -0.4908688358E-02       4   13    1        -0.2897768843E+00      0.5168822656E+00
          0                 3           2             4   13     1      -0.3562715017E-02       4   13    1        -0.2099076452E+00      0.3677078570E+00
          0                 4           2             4   13     1       0.1665195225E-03       4   13    1         0.1008620946E-01      0.1779606193E-01
          0                 5           2             4   13     1      -0.1553079151E-03       4   13    1        -0.9668190961E-02      0.1707893280E-01
          0                 6           1             4   13     1       0.1744419500E-05       4   13    1         0.1116519834E-03      0.1748962974E-03

    ------------------------------------------------
       NWT REQUIRED            6 OUTER ITERATIONS 
       AND A TOTAL OF         11 INNER ITERATIONS.
    ------------------------------------------------

 NO OUTPUT CONTROL FOR STRESS PERIOD   19   TIME STEP   19
 
 SOLVING FOR HEAD 
                                                   Max.-Head-Change                         Max.-Flux-Residual
  Residual-Control   Outer-Iter.   Inner-Iter.     Column Row Layer    Maximum-Head-Change  Column Row Layer    Maximum-Flux-Residual          L2-NORM 
          0                 1           2             4   13     1       0.7337757281E-02       4   13    1         0.4229392883E+00      0.7640734176E+00
          0                 2           2             4   13     1      -0.4920251191E-02       4   13    1        -0.2904583597E+00      0.5182126533E+00
          0                 3           2             4   13     1      -0.3575981309E-02       4   13    1        -0.2106882801E+00      0.3690881386E+00
          0                 4           2             4   13     1       0.1709934453E-03       4   13    1         0.1035715008E-01      0.1826351029E-01
          0                 5           2             4   13     1      -0.1482785963E-03       4   13    1        -0.9230603926E-02      0.1630092915E-01
          0                 6           1             4   13     1       0.1703928787E-05       4   13    1         0.1090807109E-03      0.1677021764E-03

    ------------------------------------------------
       NWT REQUIRED            6 OUTER ITERATIONS 
       AND A TOTAL OF         11 INNER ITERATIONS.
    ------------------------------------------------

 NO OUTPUT CONTROL FOR STRESS PERIOD   19   TIME STEP   20
 
 SOLVING FOR HEAD 
                                                   Max.-Head-Change                         Max.-Flux-Residual
  Residual-Control   Outer-Iter.   Inner-Iter.     Column Row Layer    Maximum-Head-Change  Column Row Layer    Maximum-Flux-Residual          L2-NORM 
          0                 1           2             4   13     1       0.7438081046E-02       4   13    1         0.4286951556E+00      0.7743828587E+00
          0                 2           2             4   13     1      -0.4930175767E-02       4   13    1        -0.2910429269E+00      0.5193894532E+00
          0                 3           2             4   13     1      -0.3624015837E-02       4   13    1        -0.2135146125E+00      0.3740367772E+00
          0                 4           2             4   13     1       0.1827217522E-03       4   13    1         0.1106745309E-01      0.1959727993E-01
          0                 5           2             4   13     1      -0.1308525009E-03       4   13    1        -0.8145765846E-02      0.1437142778E-01
          0                 6           1             4   13     1       0.1492033848E-05       4   13    1         0.9553108157E-04      0.1472008898E-03

    ------------------------------------------------
       NWT REQUIRED            6 OUTER ITERATIONS 
       AND A TOTAL OF         11 INNER ITERATIONS.
    ------------------------------------------------

 NO OUTPUT CONTROL FOR STRESS PERIOD   19   TIME STEP   21
 
 SOLVING FOR HEAD 
                                                   Max.-Head-Change                         Max.-Flux-Residual
  Residual-Control   Outer-Iter.   Inner-Iter.     Column Row Layer    Maximum-Head-Change  Column Row Layer    Maximum-Flux-Residual          L2-NORM 
          0                 1           2             4   13     1       0.7531210134E-02       4   13    1         0.4340360514E+00      0.7840890697E+00
          0                 2           2             4   13     1      -0.4942609822E-02       4   13    1        -0.2917750813E+00      0.5208182179E+00
          0                 3           2             4   13     1      -0.3610366622E-02       4   13    1        -0.2127114093E+00      0.3726490574E+00
          0                 4           2             4   13     1       0.1777998987E-03       4   13    1         0.1076937635E-01      0.1904509294E-01
          0                 5           2             4   13     1      -0.1385748523E-03       4   13    1        -0.8626477344E-02      0.1522861171E-01
          0                 6           1             4   13     1       0.1603619132E-05       4   13    1         0.1026765221E-03      0.1581429910E-03

    ------------------------------------------------
       NWT REQUIRED            6 OUTER ITERATIONS 
       AND A TOTAL OF         11 INNER ITERATIONS.
    ------------------------------------------------

 NO OUTPUT CONTROL FOR STRESS PERIOD   19   TIME STEP   22
 
 SOLVING FOR HEAD 
                                                   Max.-Head-Change                         Max.-Flux-Residual
  Residual-Control   Outer-Iter.   Inner-Iter.     Column Row Layer    Maximum-Head-Change  Column Row Layer    Maximum-Flux-Residual          L2-NORM 
          0                 1           2             4   13     1       0.7615938600E-02       4   13    1         0.4388920483E+00      0.7930868352E+00
          0                 2           2             4   13     1      -0.4950329491E-02       4   13    1        -0.2922292524E+00      0.5217789828E+00
          0                 3           2             4   13     1      -0.3585031442E-02       4   13    1        -0.2112209889E+00      0.3700593005E+00
          0                 4           2             4   13     1       0.1727482831E-03       4   13    1         0.1046352421E-01      0.1840193023E-01
          0                 5           2             4   13     1      -0.1458192120E-03       4   13    1        -0.9077494166E-02      0.1603133631E-01
          0                 6           1             4   13     1       0.1668962136E-05       4   13    1         0.1068494630E-03      0.1656688401E-03

    ------------------------------------------------
       NWT REQUIRED            6 OUTER ITERATIONS 
       AND A TOTAL OF         11 INNER ITERATIONS.
    ------------------------------------------------

 NO OUTPUT CONTROL FOR STRESS PERIOD   19   TIME STEP   23
 
 SOLVING FOR HEAD 
                                                   Max.-Head-Change                         Max.-Flux-Residual
  Residual-Control   Outer-Iter.   Inner-Iter.     Column Row Layer    Maximum-Head-Change  Column Row Layer    Maximum-Flux-Residual          L2-NORM 
          0                 1           2             4   13     1       0.7691427810E-02       4   13    1         0.4432150684E+00      0.8013045577E+00
          0                 2           2             4   13     1      -0.4958137156E-02       4   13    1        -0.2926883006E+00      0.5227544449E+00
          0                 3           2             4   13     1      -0.3597488355E-02       4   13    1        -0.2119540361E+00      0.3713517613E+00
          0                 4           2             4   13     1       0.1769895214E-03       4   13    1         0.1072037855E-01      0.1884674387E-01
          0                 5           2             4   13     1      -0.1391402671E-03       4   13    1        -0.8661720639E-02      0.1529195337E-01
          0                 6           1             4   13     1       0.1597932870E-05       4   13    1         0.1023034392E-03      0.1580230398E-03

    ------------------------------------------------
       NWT REQUIRED            6 OUTER ITERATIONS 
       AND A TOTAL OF         11 INNER ITERATIONS.
    ------------------------------------------------

 NO OUTPUT CONTROL FOR STRESS PERIOD   19   TIME STEP   24
 
 SOLVING FOR HEAD 
                                                   Max.-Head-Change                         Max.-Flux-Residual
  Residual-Control   Outer-Iter.   Inner-Iter.     Column Row Layer    Maximum-Head-Change  Column Row Layer    Maximum-Flux-Residual          L2-NORM 
          0                 1           2             4   13     1       0.7760251815E-02       4   13    1         0.4471538005E+00      0.8089299427E+00
          0                 2           2             4   13     1      -0.4965245454E-02       4   13    1        -0.2931059671E+00      0.5236591447E+00
          0                 3           2             4   13     1      -0.3609389032E-02       4   13    1        -0.2126543475E+00      0.3725860647E+00
          0                 4           2             4   13     1       0.1811486411E-03       4   13    1         0.1097227494E-01      0.1928051211E-01
          0                 5           2             4   13     1      -0.1326300680E-03       4   13    1        -0.8256463521E-02      0.1457033642E-01
          0                 6           1             4   13     1       0.1520008244E-05       4   13    1         0.9730606052E-04      0.1508442979E-03

    ------------------------------------------------
       NWT REQUIRED            6 OUTER ITERATIONS 
       AND A TOTAL OF         11 INNER ITERATIONS.
    ------------------------------------------------

 NO OUTPUT CONTROL FOR STRESS PERIOD   19   TIME STEP   25
 
 SOLVING FOR HEAD 
                                                   Max.-Head-Change                         Max.-Flux-Residual
  Residual-Control   Outer-Iter.   Inner-Iter.     Column Row Layer    Maximum-Head-Change  Column Row Layer    Maximum-Flux-Residual          L2-NORM 
          0                 1           2             4   13     1       0.7823120097E-02       4   13    1         0.4507494572E+00      0.8160131010E+00
          0                 2           2             4   13     1      -0.4971754189E-02       4   13    1        -0.2934881655E+00      0.5245019044E+00
          0                 3           2             4   13     1      -0.3611547573E-02       4   13    1        -0.2127814632E+00      0.3728175649E+00
          0                 4           2             4   13     1       0.1815350656E-03       4   13    1         0.1099567244E-01      0.1930486193E-01
          0                 5           2             4   13     1      -0.1320421512E-03       4   13    1        -0.8219832263E-02      0.1450953770E-01
          0                 6           1             4   13     1       0.1493991997E-05       4   13    1         0.9563303047E-04      0.1494285754E-03

    ------------------------------------------------
       NWT REQUIRED            6 OUTER ITERATIONS 
       AND A TOTAL OF         11 INNER ITERATIONS.
    ------------------------------------------------

 NO OUTPUT CONTROL FOR STRESS PERIOD   19   TIME STEP   26
 
 SOLVING FOR HEAD 
                                                   Max.-Head-Change                         Max.-Flux-Residual
  Residual-Control   Outer-Iter.   Inner-Iter.     Column Row Layer    Maximum-Head-Change  Column Row Layer    Maximum-Flux-Residual          L2-NORM 
          0                 1           2             4   13     1       0.7880425905E-02       4   13    1         0.4540246442E+00      0.8225839140E+00
          0                 2           2             4   13     1      -0.4983327587E-02       4   13    1        -0.2941685428E+00      0.5258470798E+00
          0                 3           2             4   13     1      -0.3608994110E-02       4   13    1        -0.2126308243E+00      0.3725670964E+00
          0                 4           2             4   13     1       0.1821351469E-03       4   13    1         0.1103200608E-01      0.1935753214E-01
          0                 5           2             4   13     1      -0.1307022548E-03       4   13    1        -0.8136438158E-02      0.1435993467E-01
          0                 6           1             4   13     1       0.1497898327E-05       4   13    1         0.9589948513E-04      0.1478615985E-03

    ------------------------------------------------
       NWT REQUIRED            6 OUTER ITERATIONS 
       AND A TOTAL OF         11 INNER ITERATIONS.
    ------------------------------------------------

 NO OUTPUT CONTROL FOR STRESS PERIOD   19   TIME STEP   27
 
 SOLVING FOR HEAD 
                                                   Max.-Head-Change                         Max.-Flux-Residual
  Residual-Control   Outer-Iter.   Inner-Iter.     Column Row Layer    Maximum-Head-Change  Column Row Layer    Maximum-Flux-Residual          L2-NORM 
          0                 1           2             4   13     1       0.7932905650E-02       4   13    1         0.4570219888E+00      0.8286900741E+00
          0                 2           2             4   13     1      -0.4988480675E-02       4   13    1        -0.2944706564E+00      0.5265485818E+00
          0                 3           2             4   13     1      -0.3621306997E-02       4   13    1        -0.2133554021E+00      0.3738418091E+00
          0                 4           2             4   13     1       0.1863926758E-03       4   13    1         0.1128983614E-01      0.1980525410E-01
          0                 5           2             4   13     1      -0.1239328089E-03       4   13    1        -0.7714998980E-02      0.1361300895E-01
          0                 6           1             4   13     1       0.1419789882E-05       4   13    1         0.9088155366E-04      0.1410469696E-03

    ------------------------------------------------
       NWT REQUIRED            6 OUTER ITERATIONS 
       AND A TOTAL OF         11 INNER ITERATIONS.
    ------------------------------------------------

 NO OUTPUT CONTROL FOR STRESS PERIOD   19   TIME STEP   28
 
 SOLVING FOR HEAD 
                                                   Max.-Head-Change                         Max.-Flux-Residual
  Residual-Control   Outer-Iter.   Inner-Iter.     Column Row Layer    Maximum-Head-Change  Column Row Layer    Maximum-Flux-Residual          L2-NORM 
          0                 1           2             4   13     1       0.7472934226E-02       4   13    1         0.4304825340E+00      0.7840408520E+00
          0                 2           2             4   13     1      -0.4939601466E-02       4   13    1        -0.2915304653E+00      0.5201363916E+00
          0                 3           2             4   13     1      -0.3630174166E-02       4   13    1        -0.2138363744E+00      0.3747161043E+00
          0                 4           2             7   13     1      -0.2246940131E-03       7   13    1        -0.1325627776E-01      0.2393226842E-01
          0                 5           2             4   13     1      -0.1168797656E-03       4   13    1        -0.7274624237E-02      0.1281824135E-01
          0                 6           1             4   13     1       0.1385263902E-05       4   13    1         0.8869694739E-04      0.1343289637E-03

    ------------------------------------------------
       NWT REQUIRED            6 OUTER ITERATIONS 
       AND A TOTAL OF         11 INNER ITERATIONS.
    ------------------------------------------------

 NO OUTPUT CONTROL FOR STRESS PERIOD   19   TIME STEP   29
 
 SOLVING FOR HEAD 
                                                   Max.-Head-Change                         Max.-Flux-Residual
  Residual-Control   Outer-Iter.   Inner-Iter.     Column Row Layer    Maximum-Head-Change  Column Row Layer    Maximum-Flux-Residual          L2-NORM 
          0                 1           2             4   13     1       0.6926308494E-02       4   13    1         0.3989689558E+00      0.7301289175E+00
          0                 2           2             4   13     1      -0.4882423652E-02       4   13    1        -0.2880893166E+00      0.5124352006E+00
          0                 3           2             4   13     1      -0.3636763994E-02       4   13    1        -0.2141722501E+00      0.3753547144E+00
          0                 4           2             7   13     1      -0.4038464695E-03       7   13    1        -0.2380172606E-01      0.3157477928E-01
          0                 5           1             4   13     1      -0.1101651404E-03       4   13    1        -0.6855033097E-02      0.1206615297E-01
          0                 6           1             4   13     1       0.1255076477E-05       4   13    1         0.8030190111E-04      0.1249340995E-03

    ------------------------------------------------
       NWT REQUIRED            6 OUTER ITERATIONS 
       AND A TOTAL OF         10 INNER ITERATIONS.
    ------------------------------------------------

 NO OUTPUT CONTROL FOR STRESS PERIOD   19   TIME STEP   30



 STREAM LISTING     PERIOD     19   STEP       30

 LAYER ROW COL. STREAM  RCH.  FLOW INTO     FLOW TO   FLOW OUT OF   OVRLND.     DIRECT     STREAM       STREAM     STREAM     STREAM   STREAMBED  STREAMBED
                SEG.NO.  NO.  STRM. RCH.    AQUIFER    STRM. RCH.    RUNOFF     PRECIP       ET          HEAD       DEPTH      WIDTH   CONDCTNC.   GRADIENT

   1    1    1     1     1    4.0501E+01  3.0566E-01   4.0195E+01  0.000E+00  0.000E+00  0.000E+00  1.09438E+03  1.335E+00  1.567E+01  7.051E-02  1.445E+00
   1    2    2     1     2    4.0195E+01  4.7341E-01   3.9722E+01  0.000E+00  0.000E+00  0.000E+00  1.08939E+03  1.332E+00  1.561E+01  1.093E-01  1.444E+00
   1    3    3     1     3    3.9722E+01  4.0378E-01   3.9318E+01  0.000E+00  0.000E+00  0.000E+00  1.08375E+03  1.329E+00  1.555E+01  9.328E-02  1.443E+00
   1    3    4     1     4    3.9318E+01  3.7185E-01   3.8946E+01  0.000E+00  0.000E+00  0.000E+00  1.07873E+03  1.326E+00  1.549E+01  8.596E-02  1.442E+00
   1    4    5     2     1    3.6946E+01  3.5272E-01   3.6593E+01  0.000E+00  0.000E+00  0.000E+00  1.07346E+03  1.522E+00  1.200E+01  7.800E-02  1.507E+00
   1    5    6     2     2    3.6593E+01  2.7086E-01   3.6322E+01  0.000E+00  0.000E+00  0.000E+00  1.06802E+03  1.514E+00  1.200E+01  6.000E-02  1.505E+00
   1    6    6     2     3    3.6322E+01  2.7045E-01   3.6052E+01  0.000E+00  0.000E+00  0.000E+00  1.06330E+03  1.508E+00  1.200E+01  6.000E-02  1.503E+00
   1    7    6     2     4    3.6052E+01  2.7005E-01   3.5782E+01  0.000E+00  0.000E+00  0.000E+00  1.05858E+03  1.501E+00  1.200E+01  6.000E-02  1.500E+00
   1    8    6     2     5    3.5782E+01  2.6964E-01   3.5512E+01  0.000E+00  0.000E+00  0.000E+00  1.05385E+03  1.494E+00  1.200E+01  6.000E-02  1.498E+00
   1    3    5     3     1    2.0000E+00  2.8252E-01   1.7175E+00  0.000E+00  0.000E+00  0.000E+00  1.07555E+03  1.909E+00  9.636E+00  7.227E-02  1.955E+00
   1    3    6     3     2    1.7175E+00  2.4905E-01   1.4684E+00  0.000E+00  0.000E+00  0.000E+00  1.07264E+03  1.727E+00  8.909E+00  6.682E-02  1.864E+00
   1    3    7     3     3    1.4684E+00  1.9718E-01   1.2712E+00  0.000E+00  0.000E+00  0.000E+00  1.06987E+03  1.555E+00  8.218E+00  5.547E-02  1.777E+00
   1    4    8     3     4    1.2712E+00  2.2567E-01   1.0456E+00  0.000E+00  0.000E+00  0.000E+00  1.06682E+03  1.364E+00  7.455E+00  6.709E-02  1.682E+00
   1    5    8     3     5    1.0456E+00  1.5790E-01   8.8768E-01  0.000E+00  0.000E+00  0.000E+00  1.06362E+03  1.164E+00  6.655E+00  4.991E-02  1.582E+00
   1    6    8     3     6    8.8768E-01  5.5980E-02   8.3170E-01  0.000E+00  0.000E+00  0.000E+00  1.06158E+03  1.036E+00  6.145E+00  1.844E-02  1.518E+00
   1    5   10     4     1    1.0000E+01  9.0919E-02   9.9091E+00  0.000E+00  0.000E+00  0.000E+00  1.07836E+03  6.368E-01  1.000E+01  2.500E-02  1.212E+00
   1    5    9     4     2    9.9091E+00  1.8158E-01   9.7275E+00  0.000E+00  0.000E+00  0.000E+00  1.07154E+03  6.315E-01  1.000E+01  5.000E-02  1.211E+00
   1    6    8     4     3    9.7275E+00  1.2689E-01   9.6006E+00  0.000E+00  0.000E+00  0.000E+00  1.06381E+03  6.256E-01  1.000E+01  3.500E-02  1.209E+00
   1    6    8     5     1    1.0432E+01  2.2686E-01   1.0205E+01  0.000E+00  0.000E+00  0.000E+00  1.05868E+03  6.790E-01  1.542E+01  6.166E-02  1.226E+00
   1    7    7     5     2    1.0205E+01  2.7894E-01   9.9265E+00  0.000E+00  0.000E+00  0.000E+00  1.05417E+03  6.732E-01  1.519E+01  7.594E-02  1.224E+00
   1    8    7     5     3    9.9265E+00  1.9221E-01   9.7343E+00  0.000E+00  0.000E+00  0.000E+00  1.04992E+03  6.676E-01  1.497E+01  5.241E-02  1.223E+00
   1    8    6     5     4    9.7343E+00  1.3577E-01   9.5985E+00  0.000E+00  0.000E+00  0.000E+00  1.04691E+03  6.637E-01  1.482E+01  3.706E-02  1.221E+00
   1    9    6     6     1    2.2825E+01  2.4914E-01   2.2576E+01  0.000E+00  0.000E+00  0.000E+00  1.04388E+03  1.152E+00  1.200E+01  6.000E-02  1.384E+00
   1   10    7     6     2    2.2576E+01  2.4869E-01   2.2327E+01  0.000E+00  0.000E+00  0.000E+00  1.03933E+03  1.145E+00  1.200E+01  6.000E-02  1.382E+00
   1   11    7     6     3    2.2327E+01  2.4823E-01   2.2079E+01  0.000E+00  0.000E+00  0.000E+00  1.03477E+03  1.137E+00  1.200E+01  6.000E-02  1.379E+00
   1   12    7     6     4    2.2079E+01  2.4777E-01   2.1831E+01  0.000E+00  0.000E+00  0.000E+00  1.03022E+03  1.130E+00  1.200E+01  6.000E-02  1.377E+00
   1   13    7     6     5    2.1831E+01 -2.8319E-02   2.1859E+01  0.000E+00  0.000E+00  0.000E+00  1.02704E+03  1.126E+00  1.200E+01  2.400E-01 -3.933E-02
   1   14    9     7     1    1.5000E+02  1.3363E+00   1.4866E+02  0.000E+00  0.000E+00  0.000E+00  1.03987E+03  2.288E+00  5.529E+01  5.593E-01  7.964E-01
   1   13    8     7     2    1.4866E+02  1.8171E+00   1.4685E+02  0.000E+00  0.000E+00  0.000E+00  1.03478E+03  2.279E+00  5.526E+01  6.148E-01  9.852E-01
   1   13    7     7     3    1.4685E+02  1.4167E+00   1.4543E+02  0.000E+00  0.000E+00  0.000E+00  1.02969E+03  2.271E+00  5.522E+01  5.585E-01  8.456E-01
   1   13    6     8     1    1.6729E+02  8.4498E-01   1.6644E+02  0.000E+00  0.000E+00  0.000E+00  1.02481E+03  2.932E+00  4.251E+01  4.332E-01  6.502E-01
   1   13    5     8     2    1.6644E+02  1.0159E-01   1.6634E+02  0.000E+00  0.000E+00  0.000E+00  1.01855E+03  2.929E+00  4.246E+01  4.327E-01  7.825E-02
   1   13    4     8     3    1.6634E+02 -2.7321E+00   1.6907E+02  0.000E+00  0.000E+00  0.000E+00  1.01231E+03  2.937E+00  4.259E+01  4.340E+00 -2.098E-01
   1   13    3     8     4    1.6907E+02 -3.8241E+00   1.7290E+02  0.000E+00  0.000E+00  0.000E+00  1.00608E+03  2.959E+00  4.290E+01  4.372E+00 -2.916E-01
   1   13    2     8     5    1.7290E+02 -2.6920E+00   1.7559E+02  0.000E+00  0.000E+00  0.000E+00  9.99855E+02  2.980E+00  4.320E+01  4.403E+00 -2.038E-01
   1   13    1     8     6    1.7559E+02 -2.0722E+00   1.7766E+02  0.000E+00  0.000E+00  0.000E+00  9.94870E+02  2.995E+00  4.343E+01  2.655E+00 -2.601E-01
   1    8    6     9     1    2.2286E+01  0.0000E+00   2.2286E+01  0.000E+00  0.000E+00  0.000E+00  1.08242E+03  3.665E+00  4.000E+00  0.000E+00  2.222E+00
   1    8    5     9     2    2.2286E+01  0.0000E+00   2.2286E+01  0.000E+00  0.000E+00  0.000E+00  1.08192E+03  3.665E+00  4.000E+00  0.000E+00  2.222E+00





UNSATURATED ZONE PACKAGE VOLUMETRIC BUDGET FOR  TIME STEP    30 STRESS PERIOD   19
  ------------------------------------------------------------------------------



     CUMULATIVE VOLUMES      L**3       RATES FOR THIS TIME STEP      L**3/T
     ------------------                 ------------------------

           IN:                                      IN:
           ---                                      ---
        INFILTRATION =   695607978.6667          INFILTRATION =          26.6939

          OUT:                                     OUT:
          ----                                     ----
              UZF ET =   636844327.9595                UZF ET =          26.6075
        UZF RECHARGE =      654072.9065          UZF RECHARGE =       0.0000E+00

            IN - OUT =    58109577.8008              IN - OUT =       8.6433E-02

          STORAGE:                                 STORAGE:
          --------                                 --------
      STORAGE CHANGE =    58110170.1776        STORAGE CHANGE =       8.6433E-02

 PERCENT DISCREPANCY IS DIFFERENCE BETWEEN IN-OUT MINUS CHANGE IN STORAGE
 DIVIDED BY THE AVERAGE OF IN AND OUT TIMES 100

 PERCENT DISCREPANCY =          -0.00     PERCENT DISCREPANCY =           0.00






1
  VOLUMETRIC BUDGET FOR ENTIRE MODEL AT END OF TIME STEP   30, STRESS PERIOD  19
  ------------------------------------------------------------------------------

     CUMULATIVE VOLUMES      L**3       RATES FOR THIS TIME STEP      L**3/T
     ------------------                 ------------------------

           IN:                                      IN:
           ---                                      ---
               AG WELLS  =    44426692.0000                 AG WELLS  =           0.0000
      DIVERSION SEGMENTS =   442448128.0000        DIVERSION SEGMENTS =          22.2860
           GW IRRIGATION =           0.0000             GW IRRIGATION =           0.0000
           SW IRRIGATION =           0.0000             SW IRRIGATION =           0.0000
        SYSTEM LOSSES GW =           0.0000          SYSTEM LOSSES GW =           0.0000
        SYSTEM LOSSES SW =           0.0000          SYSTEM LOSSES SW =           0.0000

                TOTAL IN =   486874816.0000                  TOTAL IN =          22.2860

          OUT:                                     OUT:
          ----                                     ----
               AG WELLS  =           0.0000                 AG WELLS  =           0.0000
      DIVERSION SEGMENTS =           0.0000        DIVERSION SEGMENTS =           0.0000
           GW IRRIGATION =    44426692.0000             GW IRRIGATION =           0.0000
           SW IRRIGATION =   442457248.0000             SW IRRIGATION =          22.2864
        SYSTEM LOSSES GW =           0.0000          SYSTEM LOSSES GW =           0.0000
        SYSTEM LOSSES SW =           0.0000          SYSTEM LOSSES SW =           0.0000

               TOTAL OUT =   486883936.0000                 TOTAL OUT =          22.2864

                IN - OUT =       -9120.0000                  IN - OUT =      -4.4441E-04

     PERCENT DISCREPANCY =          -0.00         PERCENT DISCREPANCY =          -0.00



1
  VOLUMETRIC BUDGET FOR ENTIRE MODEL AT END OF TIME STEP   30, STRESS PERIOD  19
  ------------------------------------------------------------------------------

     CUMULATIVE VOLUMES      L**3       RATES FOR THIS TIME STEP      L**3/T
     ------------------                 ------------------------

           IN:                                      IN:
           ---                                      ---
             STORAGE     =    93466928.0000               STORAGE     =           0.9201
       CONSTANT HEAD     =           0.0000         CONSTANT HEAD     =           0.0000
     HEAD DEP BOUNDS     =    13552980.0000       HEAD DEP BOUNDS     =           0.2858
      STREAM LEAKAGE     =   570231040.0000        STREAM LEAKAGE     =          11.9004
        UZF RECHARGE     =      654073.0000          UZF RECHARGE     =           0.0000
               GW ET     =           0.0000                 GW ET     =           0.0000
     SURFACE LEAKAGE     =           0.0000       SURFACE LEAKAGE     =           0.0000
           AG WELLS      =           0.0000             AG WELLS      =           0.0000

                TOTAL IN =   677905024.0000                  TOTAL IN =          13.1063

          OUT:                                     OUT:
          ----                                     ----
             STORAGE     =   104241752.0000               STORAGE     =           1.4669
       CONSTANT HEAD     =           0.0000         CONSTANT HEAD     =           0.0000
     HEAD DEP BOUNDS     =    13814347.0000       HEAD DEP BOUNDS     =           0.2907
      STREAM LEAKAGE     =   513196128.0000        STREAM LEAKAGE     =          11.3487
        UZF RECHARGE     =           0.0000          UZF RECHARGE     =           0.0000
               GW ET     =     2231806.7500                 GW ET     =           0.0000
     SURFACE LEAKAGE     =           0.0000       SURFACE LEAKAGE     =           0.0000
           AG WELLS      =    44426692.0000             AG WELLS      =           0.0000

               TOTAL OUT =   677910720.0000                 TOTAL OUT =          13.1062

                IN - OUT =       -5696.0000                  IN - OUT =       9.5367E-06

     PERCENT DISCREPANCY =          -0.00         PERCENT DISCREPANCY =           0.00






         TIME SUMMARY AT END OF TIME STEP   30 IN STRESS PERIOD   19
                    SECONDS     MINUTES      HOURS       DAYS        YEARS
                    -----------------------------------------------------------
   TIME STEP LENGTH  87667.      1461.1      24.352      1.0147     2.77799E-03
 STRESS PERIOD TIME 2.63000E+06  43833.      730.56      30.440     8.33397E-02
         TOTAL TIME 4.74265E+07 7.90442E+05  13174.      548.92      1.5029    
1
1
                            STRESS PERIOD NO.   20, LENGTH =   2630000.    
                            -----------------------------------------------

                              NUMBER OF TIME STEPS =    30

                               MULTIPLIER FOR DELT =     1.000

                            INITIAL TIME STEP SIZE =   87666.66    

 REUSING NON-PARAMETER GHB CELLS FROM LAST STRESS PERIOD

      2 GHB CELLS

 REUSING STREAM SEGMENT DATA FROM LAST STRESS PERIOD



            AREAL INFILTRATION RATE
 READING ON UNIT   19 WITH FORMAT: (10F4.0)            

            1           2           3           4           5           6           7           8           9          10
 ........................................................................................................................
   1   1.2000E-09   0.000       0.000       0.000       0.000       0.000       0.000       0.000       0.000       0.000    
   2   2.1000E-09  2.0000E-09  8.0000E-10  8.5000E-09   0.000       0.000       0.000       0.000       0.000       0.000    
   3   5.0000E-10  1.1000E-09  8.8000E-09  5.5000E-09   0.000       0.000       0.000       0.000       0.000       0.000    
   4   8.5000E-09  1.1000E-09  1.1000E-09  1.1000E-09  2.0000E-09   0.000       0.000       0.000       0.000       0.000    
   5   8.5000E-09  1.1000E-09  1.1000E-09  1.1000E-09  1.1000E-09   0.000       0.000       0.000       0.000       0.000    
   6   8.5000E-09  5.2000E-09  2.1000E-09  1.1000E-09  1.5000E-09   0.000       0.000       0.000       0.000       0.000    
   7   8.5000E-09  5.2000E-09  2.1000E-09  1.2000E-09  2.0000E-09   0.000       0.000       0.000       0.000       0.000    
   8   5.0000E-10  5.2000E-09  2.1000E-09  1.2000E-09  5.0000E-09   0.000       0.000       0.000       0.000       0.000    
   9   5.0000E-10  5.2000E-09  2.1000E-09  1.2000E-09  5.0000E-09   0.000       0.000       0.000       0.000       0.000    
  10   5.0000E-10  5.2000E-09  2.1000E-09  1.2000E-09  5.8000E-09   0.000       0.000       0.000       0.000       0.000    
  11   1.0000E-10  1.1000E-09  1.1000E-09  1.2000E-09  5.0000E-09   0.000       0.000       0.000       0.000       0.000    
  12   1.1000E-09  1.1000E-09  1.1000E-09  1.1000E-09  2.0000E-09   0.000       0.000       0.000       0.000       0.000    
  13   1.1000E-09  2.2000E-09  2.2000E-09  2.1000E-09  1.0000E-09   0.000       0.000       0.000       0.000       0.000    
  14   2.0000E-10  5.5000E-09  5.5000E-09  5.2000E-09  1.0000E-09   0.000       0.000       0.000       0.000       0.000    
  15    0.000      8.8000E-09  8.8000E-09   0.000       0.000       0.000       0.000       0.000       0.000       0.000    

                  ET RATE =  4.000000E-07

 USING ET EXTINCTION DEPTH FROM PREVIOUS STRESS PERIOD. CURRENT PERIOD IS:      20

 USING EXTINCTION WATER CONTENT FROM PREVIOUS STRESS PERIOD. CURRENT PERIOD IS:      20

 USING AIR ENTRY PRESSURE FROM PREVIOUS STRESS PERIOD. CURRENT PERIOD IS:      20

 USING ROOT PRESSURE HEAD FROM PREVIOUS STRESS PERIOD. CURRENT PERIOD IS:      20

 USING ROOT ACTIVITY FROM PREVIOUS STRESS PERIOD. CURRENT PERIOD IS:      20

 PROCESSING AG STRESS PERIOD DATA

 READING AG STRESS PERIOD DATA

 READING IRRIGATION SEGMENT

 READING IRRIGATION WELL

 READING SUPPLEMENTAL WELL

 END PROCESSING AG STRESS PERIOD DATA OPTIONS
 
 SOLVING FOR HEAD 
                                                   Max.-Head-Change                         Max.-Flux-Residual
  Residual-Control   Outer-Iter.   Inner-Iter.     Column Row Layer    Maximum-Head-Change  Column Row Layer    Maximum-Flux-Residual          L2-NORM 
          0                 1           2             4    7     1      -0.2215766225E-01       5    8    1        -0.1167675699E+01      0.2938819965E+01
          0                 2           2             4    7     1      -0.2695097540E-01       4    6    1        -0.1408135795E+01      0.3731646160E+01
          0                 3           2             4    7     1      -0.1587694403E-01       5    8    1        -0.8295410242E+00      0.2037738110E+01
          0                 4           2             4    7     1      -0.2848833737E-03       4    6    1        -0.1495238153E-01      0.3760337866E-01
          0                 5           2             4    7     1      -0.3235451420E-02       5    8    1        -0.1690301676E+00      0.4140328932E+00
          0                 6           2             4    7     1       0.3147210354E-03       5    8    1         0.1690521901E-01      0.4140696896E-01
          0                 7           1             4    7     1      -0.2143133750E-04       5    8    1        -0.1183517134E-02      0.2898805543E-02

    ------------------------------------------------
       NWT REQUIRED            7 OUTER ITERATIONS 
       AND A TOTAL OF         13 INNER ITERATIONS.
    ------------------------------------------------

 OUTPUT CONTROL FOR STRESS PERIOD   20   TIME STEP    1
    PRINT BUDGET
    SAVE BUDGET
    SAVE BUDGET
 UBDSV1 SAVING "         STORAGE" ON UNIT 102 AT TIME STEP  1, STRESS PERIOD  20
 UBDSV2 SAVING "   CONSTANT HEAD" ON UNIT 102 AT TIME STEP  1, STRESS PERIOD  20
 UBDSV1 SAVING "FLOW RIGHT FACE " ON UNIT 102 AT TIME STEP  1, STRESS PERIOD  20
 UBDSV1 SAVING "FLOW FRONT FACE " ON UNIT 102 AT TIME STEP  1, STRESS PERIOD  20

  HEAD DEP BOUNDS   PERIOD   20   STEP     1
 BOUNDARY      1   LAYER   1   ROW    13   COL     1   RATE   -0.290553    
 BOUNDARY      2   LAYER   1   ROW    14   COL     9   RATE    0.285789    



 STREAM LISTING     PERIOD     20   STEP        1

 LAYER ROW COL. STREAM  RCH.  FLOW INTO     FLOW TO   FLOW OUT OF   OVRLND.     DIRECT     STREAM       STREAM     STREAM     STREAM   STREAMBED  STREAMBED
                SEG.NO.  NO.  STRM. RCH.    AQUIFER    STRM. RCH.    RUNOFF     PRECIP       ET          HEAD       DEPTH      WIDTH   CONDCTNC.   GRADIENT

   1    1    1     1     1    4.0501E+01  3.0566E-01   4.0195E+01  0.000E+00  0.000E+00  0.000E+00  1.09438E+03  1.335E+00  1.567E+01  7.051E-02  1.445E+00
   1    2    2     1     2    4.0195E+01  4.7341E-01   3.9722E+01  0.000E+00  0.000E+00  0.000E+00  1.08939E+03  1.332E+00  1.561E+01  1.093E-01  1.444E+00
   1    3    3     1     3    3.9722E+01  4.0378E-01   3.9318E+01  0.000E+00  0.000E+00  0.000E+00  1.08375E+03  1.329E+00  1.555E+01  9.328E-02  1.443E+00
   1    3    4     1     4    3.9318E+01  3.7185E-01   3.8946E+01  0.000E+00  0.000E+00  0.000E+00  1.07873E+03  1.326E+00  1.549E+01  8.596E-02  1.442E+00
   1    4    5     2     1    3.6946E+01  3.5272E-01   3.6593E+01  0.000E+00  0.000E+00  0.000E+00  1.07346E+03  1.522E+00  1.200E+01  7.800E-02  1.507E+00
   1    5    6     2     2    3.6593E+01  2.7086E-01   3.6322E+01  0.000E+00  0.000E+00  0.000E+00  1.06802E+03  1.514E+00  1.200E+01  6.000E-02  1.505E+00
   1    6    6     2     3    3.6322E+01  2.7045E-01   3.6052E+01  0.000E+00  0.000E+00  0.000E+00  1.06330E+03  1.508E+00  1.200E+01  6.000E-02  1.503E+00
   1    7    6     2     4    3.6052E+01  2.7005E-01   3.5782E+01  0.000E+00  0.000E+00  0.000E+00  1.05858E+03  1.501E+00  1.200E+01  6.000E-02  1.500E+00
   1    8    6     2     5    3.5782E+01  2.6964E-01   3.5512E+01  0.000E+00  0.000E+00  0.000E+00  1.05385E+03  1.494E+00  1.200E+01  6.000E-02  1.498E+00
   1    3    5     3     1    2.0000E+00  2.8252E-01   1.7175E+00  0.000E+00  0.000E+00  0.000E+00  1.07555E+03  1.909E+00  9.636E+00  7.227E-02  1.955E+00
   1    3    6     3     2    1.7175E+00  2.4905E-01   1.4684E+00  0.000E+00  0.000E+00  0.000E+00  1.07264E+03  1.727E+00  8.909E+00  6.682E-02  1.864E+00
   1    3    7     3     3    1.4684E+00  1.9718E-01   1.2712E+00  0.000E+00  0.000E+00  0.000E+00  1.06987E+03  1.555E+00  8.218E+00  5.547E-02  1.777E+00
   1    4    8     3     4    1.2712E+00  2.2567E-01   1.0456E+00  0.000E+00  0.000E+00  0.000E+00  1.06682E+03  1.364E+00  7.455E+00  6.709E-02  1.682E+00
   1    5    8     3     5    1.0456E+00  1.5790E-01   8.8768E-01  0.000E+00  0.000E+00  0.000E+00  1.06362E+03  1.164E+00  6.655E+00  4.991E-02  1.582E+00
   1    6    8     3     6    8.8768E-01  5.5980E-02   8.3170E-01  0.000E+00  0.000E+00  0.000E+00  1.06158E+03  1.036E+00  6.145E+00  1.844E-02  1.518E+00
   1    5   10     4     1    1.0000E+01  9.0919E-02   9.9091E+00  0.000E+00  0.000E+00  0.000E+00  1.07836E+03  6.368E-01  1.000E+01  2.500E-02  1.212E+00
   1    5    9     4     2    9.9091E+00  1.8158E-01   9.7275E+00  0.000E+00  0.000E+00  0.000E+00  1.07154E+03  6.315E-01  1.000E+01  5.000E-02  1.211E+00
   1    6    8     4     3    9.7275E+00  1.2689E-01   9.6006E+00  0.000E+00  0.000E+00  0.000E+00  1.06381E+03  6.256E-01  1.000E+01  3.500E-02  1.209E+00
   1    6    8     5     1    1.0432E+01  2.2686E-01   1.0205E+01  0.000E+00  0.000E+00  0.000E+00  1.05868E+03  6.790E-01  1.542E+01  6.166E-02  1.226E+00
   1    7    7     5     2    1.0205E+01  2.7894E-01   9.9265E+00  0.000E+00  0.000E+00  0.000E+00  1.05417E+03  6.732E-01  1.519E+01  7.594E-02  1.224E+00
   1    8    7     5     3    9.9265E+00  1.9221E-01   9.7343E+00  0.000E+00  0.000E+00  0.000E+00  1.04992E+03  6.676E-01  1.497E+01  5.241E-02  1.223E+00
   1    8    6     5     4    9.7343E+00  1.3577E-01   9.5985E+00  0.000E+00  0.000E+00  0.000E+00  1.04691E+03  6.637E-01  1.482E+01  3.706E-02  1.221E+00
   1    9    6     6     1    9.5985E+00  2.2097E-01   9.3776E+00  0.000E+00  0.000E+00  0.000E+00  1.04341E+03  6.828E-01  1.200E+01  6.000E-02  1.228E+00
   1   10    7     6     2    9.3776E+00  2.2039E-01   9.1572E+00  0.000E+00  0.000E+00  0.000E+00  1.03885E+03  6.732E-01  1.200E+01  6.000E-02  1.224E+00
   1   11    7     6     3    9.1572E+00  2.1981E-01   8.9374E+00  0.000E+00  0.000E+00  0.000E+00  1.03430E+03  6.636E-01  1.200E+01  6.000E-02  1.221E+00
   1   12    7     6     4    8.9374E+00  2.1923E-01   8.7181E+00  0.000E+00  0.000E+00  0.000E+00  1.02974E+03  6.539E-01  1.200E+01  6.000E-02  1.218E+00
   1   13    7     6     5    8.7181E+00 -1.4147E-01   8.8596E+00  0.000E+00  0.000E+00  0.000E+00  1.02656E+03  6.521E-01  1.200E+01  2.400E-01 -1.965E-01
   1   14    9     7     1    1.5000E+02  1.3363E+00   1.4866E+02  0.000E+00  0.000E+00  0.000E+00  1.03987E+03  2.288E+00  5.529E+01  5.593E-01  7.964E-01
   1   13    8     7     2    1.4866E+02  1.8171E+00   1.4685E+02  0.000E+00  0.000E+00  0.000E+00  1.03478E+03  2.279E+00  5.526E+01  6.148E-01  9.852E-01
   1   13    7     7     3    1.4685E+02  1.4182E+00   1.4543E+02  0.000E+00  0.000E+00  0.000E+00  1.02969E+03  2.271E+00  5.522E+01  5.585E-01  8.465E-01
   1   13    6     8     1    1.5429E+02  7.8375E-01   1.5350E+02  0.000E+00  0.000E+00  0.000E+00  1.02472E+03  2.844E+00  4.124E+01  4.202E-01  6.217E-01
   1   13    5     8     2    1.5350E+02  6.2561E-02   1.5344E+02  0.000E+00  0.000E+00  0.000E+00  1.01847E+03  2.841E+00  4.120E+01  4.198E-01  4.967E-02
   1   13    4     8     3    1.5344E+02 -2.9896E+00   1.5643E+02  0.000E+00  0.000E+00  0.000E+00  1.01223E+03  2.851E+00  4.134E+01  4.213E+00 -2.365E-01
   1   13    3     8     4    1.5643E+02 -4.0477E+00   1.6048E+02  0.000E+00  0.000E+00  0.000E+00  1.00600E+03  2.875E+00  4.169E+01  4.249E+00 -3.176E-01
   1   13    2     8     5    1.6048E+02 -2.9389E+00   1.6342E+02  0.000E+00  0.000E+00  0.000E+00  9.99774E+02  2.899E+00  4.204E+01  4.284E+00 -2.287E-01
   1   13    1     8     6    1.6342E+02 -2.2104E+00   1.6563E+02  0.000E+00  0.000E+00  0.000E+00  9.94791E+02  2.916E+00  4.228E+01  2.585E+00 -2.850E-01
   1    8    6     9     1    3.5512E+01  0.0000E+00   3.5512E+01  0.000E+00  0.000E+00  0.000E+00  1.08360E+03  4.847E+00  4.000E+00  0.000E+00  2.616E+00
   1    8    5     9     2    3.5512E+01  0.0000E+00   3.5512E+01  0.000E+00  0.000E+00  0.000E+00  1.08310E+03  4.847E+00  4.000E+00  0.000E+00  2.616E+00



 UBDSV3 SAVING "           GW ET" ON UNIT  61 AT TIME STEP  1, STRESS PERIOD  20
 UBDSV3 SAVING "    UZF RECHARGE" ON UNIT  61 AT TIME STEP  1, STRESS PERIOD  20
 UBDSV3 SAVING " SURFACE LEAKAGE" ON UNIT  61 AT TIME STEP  1, STRESS PERIOD  20
 UBDSV3 SAVING "       HORT+DUNN" ON UNIT  61 AT TIME STEP  1, STRESS PERIOD  20
 UBDSV3 SAVING "  STORAGE CHANGE" ON UNIT  61 AT TIME STEP  1, STRESS PERIOD  20


UNSATURATED ZONE PACKAGE VOLUMETRIC BUDGET FOR  TIME STEP     1 STRESS PERIOD   20
  ------------------------------------------------------------------------------



     CUMULATIVE VOLUMES      L**3       RATES FOR THIS TIME STEP      L**3/T
     ------------------                 ------------------------

           IN:                                      IN:
           ---                                      ---
        INFILTRATION =   701193031.8611          INFILTRATION =          63.7078

          OUT:                                     OUT:
          ----                                     ----
              UZF ET =   642464418.5288                UZF ET =          64.1075
        UZF RECHARGE =      654072.9065          UZF RECHARGE =       0.0000E+00

            IN - OUT =    58074540.4258              IN - OUT =          -0.3997

          STORAGE:                                 STORAGE:
          --------                                 --------
      STORAGE CHANGE =    58075132.6614        STORAGE CHANGE =          -0.3997

 PERCENT DISCREPANCY IS DIFFERENCE BETWEEN IN-OUT MINUS CHANGE IN STORAGE
 DIVIDED BY THE AVERAGE OF IN AND OUT TIMES 100

 PERCENT DISCREPANCY =          -0.00     PERCENT DISCREPANCY =           0.00






 

            AG WELLS      PERIOD   20   STEP   1
 AG WELL      1   LAYER   1   ROW     6   COL     4   RATE    -3.96457    
 AG WELL      2   LAYER   1   ROW     6   COL     5   RATE    -3.96457    
 AG WELL      3   LAYER   1   ROW     7   COL     4   RATE    -3.96457    
 AG WELL      4   LAYER   1   ROW     7   COL     5   RATE    -3.96457    
 AG WELL      5   LAYER   1   ROW     8   COL     4   RATE    -3.96457    
 AG WELL      6   LAYER   1   ROW     8   COL     5   RATE    -3.96457    
 
 

   DIVERSION SEGMENTS     PERIOD   20   STEP   1
 SEGMENT      9   RATE     35.5122    
 
 

        SW IRRIGATION     PERIOD   20   STEP   1
 SEGMENT      9   ROW     6   COL     4   RATE     5.91882    
 SEGMENT      9   ROW     6   COL     5   RATE     5.91882    
 SEGMENT      9   ROW     7   COL     4   RATE     5.91882    
 SEGMENT      9   ROW     7   COL     5   RATE     5.91882    
 SEGMENT      9   ROW     8   COL     4   RATE     5.91882    
 SEGMENT      9   ROW     8   COL     5   RATE     5.91882    
 
 

        GW IRRIGATION     PERIOD   20   STEP   1
 AG WELL      1   ROW     6   COL     4   RATE     3.96457    
 AG WELL      2   ROW     6   COL     5   RATE     3.96457    
 AG WELL      3   ROW     7   COL     4   RATE     3.96457    
 AG WELL      4   ROW     7   COL     5   RATE     3.96457    
 AG WELL      5   ROW     8   COL     4   RATE     3.96457    
 AG WELL      6   ROW     8   COL     5   RATE     3.96457    
 
1
  VOLUMETRIC BUDGET FOR ENTIRE MODEL AT END OF TIME STEP    1, STRESS PERIOD  20
  ------------------------------------------------------------------------------

     CUMULATIVE VOLUMES      L**3       RATES FOR THIS TIME STEP      L**3/T
     ------------------                 ------------------------

           IN:                                      IN:
           ---                                      ---
               AG WELLS  =    46512056.0000                 AG WELLS  =          23.7874
      DIVERSION SEGMENTS =   445561376.0000        DIVERSION SEGMENTS =          35.5122
           GW IRRIGATION =           0.0000             GW IRRIGATION =           0.0000
           SW IRRIGATION =           0.0000             SW IRRIGATION =           0.0000
        SYSTEM LOSSES GW =           0.0000          SYSTEM LOSSES GW =           0.0000
        SYSTEM LOSSES SW =           0.0000          SYSTEM LOSSES SW =           0.0000

                TOTAL IN =   492073440.0000                  TOTAL IN =          59.2996

          OUT:                                     OUT:
          ----                                     ----
               AG WELLS  =           0.0000                 AG WELLS  =           0.0000
      DIVERSION SEGMENTS =           0.0000        DIVERSION SEGMENTS =           0.0000
           GW IRRIGATION =    46512056.0000             GW IRRIGATION =          23.7874
           SW IRRIGATION =   445570560.0000             SW IRRIGATION =          35.5129
        SYSTEM LOSSES GW =           0.0000          SYSTEM LOSSES GW =           0.0000
        SYSTEM LOSSES SW =           0.0000          SYSTEM LOSSES SW =           0.0000

               TOTAL OUT =   492082624.0000                 TOTAL OUT =          59.3003

                IN - OUT =       -9184.0000                  IN - OUT =      -7.0953E-04

     PERCENT DISCREPANCY =          -0.00         PERCENT DISCREPANCY =          -0.00



1
  VOLUMETRIC BUDGET FOR ENTIRE MODEL AT END OF TIME STEP    1, STRESS PERIOD  20
  ------------------------------------------------------------------------------

     CUMULATIVE VOLUMES      L**3       RATES FOR THIS TIME STEP      L**3/T
     ------------------                 ------------------------

           IN:                                      IN:
           ---                                      ---
             STORAGE     =    95691632.0000               STORAGE     =          25.3769
       CONSTANT HEAD     =           0.0000         CONSTANT HEAD     =           0.0000
     HEAD DEP BOUNDS     =    13578034.0000       HEAD DEP BOUNDS     =           0.2858
      STREAM LEAKAGE     =   571255680.0000        STREAM LEAKAGE     =          11.6881
        UZF RECHARGE     =      654073.0000          UZF RECHARGE     =           0.0000
               GW ET     =           0.0000                 GW ET     =           0.0000
     SURFACE LEAKAGE     =           0.0000       SURFACE LEAKAGE     =           0.0000
           AG WELLS      =           0.0000             AG WELLS      =           0.0000

                TOTAL IN =   681179392.0000                  TOTAL IN =          37.3508

          OUT:                                     OUT:
          ----                                     ----
             STORAGE     =   104324544.0000               STORAGE     =           0.9444
       CONSTANT HEAD     =           0.0000         CONSTANT HEAD     =           0.0000
     HEAD DEP BOUNDS     =    13839819.0000       HEAD DEP BOUNDS     =           0.2906
      STREAM LEAKAGE     =   514276896.0000        STREAM LEAKAGE     =          12.3281
        UZF RECHARGE     =           0.0000          UZF RECHARGE     =           0.0000
               GW ET     =     2231806.7500                 GW ET     =           0.0000
     SURFACE LEAKAGE     =           0.0000       SURFACE LEAKAGE     =           0.0000
           AG WELLS      =    46512056.0000             AG WELLS      =          23.7874

               TOTAL OUT =   681185152.0000                 TOTAL OUT =          37.3505

                IN - OUT =       -5760.0000                  IN - OUT =       2.8610E-04

     PERCENT DISCREPANCY =          -0.00         PERCENT DISCREPANCY =           0.00






         TIME SUMMARY AT END OF TIME STEP    1 IN STRESS PERIOD   20
                    SECONDS     MINUTES      HOURS       DAYS        YEARS
                    -----------------------------------------------------------
   TIME STEP LENGTH  87667.      1461.1      24.352      1.0147     2.77799E-03
 STRESS PERIOD TIME  87667.      1461.1      24.352      1.0147     2.77799E-03
         TOTAL TIME 4.75142E+07 7.91903E+05  13198.      549.93      1.5056    
1
 
 SOLVING FOR HEAD 
                                                   Max.-Head-Change                         Max.-Flux-Residual
  Residual-Control   Outer-Iter.   Inner-Iter.     Column Row Layer    Maximum-Head-Change  Column Row Layer    Maximum-Flux-Residual          L2-NORM 
          0                 1           2             4    7     1      -0.7515779721E-01       4    7    1        -0.3928296794E+01      0.9532865497E+01
          0                 2           2             4   13     1      -0.1395856788E-01       4   13    1        -0.8204758427E+00      0.1707613661E+01
          0                 3           2             7   13     1      -0.2106798793E-02       7   13    1        -0.1175124009E+00      0.2423224986E+00
          0                 4           2             7   13     1       0.1433987009E-03       7   13    1         0.8217834391E-02      0.1188562598E-01
          0                 5           1             7   13     1      -0.5701085164E-05       7   13    1        -0.3356432894E-03      0.3522903218E-03

    ------------------------------------------------
       NWT REQUIRED            5 OUTER ITERATIONS 
       AND A TOTAL OF          9 INNER ITERATIONS.
    ------------------------------------------------

 NO OUTPUT CONTROL FOR STRESS PERIOD   20   TIME STEP    2
 
 SOLVING FOR HEAD 
                                                   Max.-Head-Change                         Max.-Flux-Residual
  Residual-Control   Outer-Iter.   Inner-Iter.     Column Row Layer    Maximum-Head-Change  Column Row Layer    Maximum-Flux-Residual          L2-NORM 
          0                 1           2             4    7     1      -0.7467201007E-01       4    7    1        -0.3904573164E+01      0.9359187427E+01
          0                 2           2             4   13     1      -0.1403684066E-01       4   13    1        -0.8250901449E+00      0.1703498575E+01
          0                 3           2             7   13     1      -0.2096350263E-02       7   13    1        -0.1169304332E+00      0.2416599775E+00
          0                 4           2             7   13     1       0.1426877794E-03       7   13    1         0.8177120415E-02      0.1184414022E-01
          0                 5           1             7   13     1      -0.5673014261E-05       7   13    1        -0.3339892814E-03      0.3503768258E-03

    ------------------------------------------------
       NWT REQUIRED            5 OUTER ITERATIONS 
       AND A TOTAL OF          9 INNER ITERATIONS.
    ------------------------------------------------

 NO OUTPUT CONTROL FOR STRESS PERIOD   20   TIME STEP    3
 
 SOLVING FOR HEAD 
                                                   Max.-Head-Change                         Max.-Flux-Residual
  Residual-Control   Outer-Iter.   Inner-Iter.     Column Row Layer    Maximum-Head-Change  Column Row Layer    Maximum-Flux-Residual          L2-NORM 
          0                 1           2             4    7     1      -0.7424249928E-01       4    7    1        -0.3881696445E+01      0.9195938317E+01
          0                 2           2             4   13     1      -0.1410797156E-01       4   13    1        -0.8292820925E+00      0.1700698853E+01
          0                 3           2             7   13     1      -0.2086231664E-02       7   13    1        -0.1163668435E+00      0.2407390041E+00
          0                 4           2             7   13     1       0.1419990784E-03       7   13    1         0.8137678672E-02      0.1179407949E-01
          0                 5           1             7   13     1      -0.5646706209E-05       7   13    1        -0.3324412132E-03      0.3491847442E-03

    ------------------------------------------------
       NWT REQUIRED            5 OUTER ITERATIONS 
       AND A TOTAL OF          9 INNER ITERATIONS.
    ------------------------------------------------

 NO OUTPUT CONTROL FOR STRESS PERIOD   20   TIME STEP    4
 
 SOLVING FOR HEAD 
                                                   Max.-Head-Change                         Max.-Flux-Residual
  Residual-Control   Outer-Iter.   Inner-Iter.     Column Row Layer    Maximum-Head-Change  Column Row Layer    Maximum-Flux-Residual          L2-NORM 
          0                 1           2             4    7     1      -0.7374699781E-01       4    7    1        -0.3857311376E+01      0.9040956622E+01
          0                 2           2             4   13     1      -0.1417261031E-01       4   13    1        -0.8330902245E+00      0.1697674943E+01
          0                 3           2             7   13     1      -0.2076437743E-02       7   13    1        -0.1158213515E+00      0.2397699700E+00
          0                 4           2             7   13     1       0.1413334664E-03       7   13    1         0.8099560370E-02      0.1174246483E-01
          0                 5           1             7   13     1      -0.5619591335E-05       7   13    1        -0.3308437595E-03      0.3473735763E-03

    ------------------------------------------------
       NWT REQUIRED            5 OUTER ITERATIONS 
       AND A TOTAL OF          9 INNER ITERATIONS.
    ------------------------------------------------

 NO OUTPUT CONTROL FOR STRESS PERIOD   20   TIME STEP    5
 
 SOLVING FOR HEAD 
                                                   Max.-Head-Change                         Max.-Flux-Residual
  Residual-Control   Outer-Iter.   Inner-Iter.     Column Row Layer    Maximum-Head-Change  Column Row Layer    Maximum-Flux-Residual          L2-NORM 
          0                 1           2             4    7     1      -0.7322798351E-01       4    7    1        -0.3831573536E+01      0.8894304966E+01
          0                 2           2             4   13     1      -0.1423137621E-01       4   13    1        -0.8365511838E+00      0.1694782374E+01
          0                 3           2             7   13     1      -0.2066922862E-02       7   13    1        -0.1152914110E+00      0.2388530372E+00
          0                 4           2             7   13     1       0.1406838753E-03       7   13    1         0.8062362766E-02      0.1169381763E-01
          0                 5           1             7   13     1      -0.5594141452E-05       7   13    1        -0.3293453342E-03      0.3457990296E-03

    ------------------------------------------------
       NWT REQUIRED            5 OUTER ITERATIONS 
       AND A TOTAL OF          9 INNER ITERATIONS.
    ------------------------------------------------

 NO OUTPUT CONTROL FOR STRESS PERIOD   20   TIME STEP    6
 
 SOLVING FOR HEAD 
                                                   Max.-Head-Change                         Max.-Flux-Residual
  Residual-Control   Outer-Iter.   Inner-Iter.     Column Row Layer    Maximum-Head-Change  Column Row Layer    Maximum-Flux-Residual          L2-NORM 
          0                 1           2             4    7     1      -0.7268763319E-01       4    7    1        -0.3804602361E+01      0.8754573162E+01
          0                 2           2             4   13     1      -0.1428485651E-01       4   13    1        -0.8396998408E+00      0.1692016443E+01
          0                 3           2             7   13     1      -0.2057712025E-02       7   13    1        -0.1147784013E+00      0.2379376207E+00
          0                 4           2             7   13     1       0.1400578609E-03       7   13    1         0.8026512170E-02      0.1164534075E-01
          0                 5           1             7   13     1      -0.5570374749E-05       7   13    1        -0.3279450575E-03      0.3443604229E-03

    ------------------------------------------------
       NWT REQUIRED            5 OUTER ITERATIONS 
       AND A TOTAL OF          9 INNER ITERATIONS.
    ------------------------------------------------

 NO OUTPUT CONTROL FOR STRESS PERIOD   20   TIME STEP    7
 
 SOLVING FOR HEAD 
                                                   Max.-Head-Change                         Max.-Flux-Residual
  Residual-Control   Outer-Iter.   Inner-Iter.     Column Row Layer    Maximum-Head-Change  Column Row Layer    Maximum-Flux-Residual          L2-NORM 
          0                 1           2             4    7     1      -0.7212798769E-01       4    7    1        -0.3776511184E+01      0.8621258712E+01
          0                 2           2             4   13     1      -0.1433351985E-01       4   13    1        -0.8425638843E+00      0.1689366719E+01
          0                 3           2             7   13     1      -0.2048780165E-02       7   13    1        -0.1142809626E+00      0.2370810053E+00
          0                 4           2             7   13     1       0.1394501556E-03       7   13    1         0.7991685592E-02      0.1159928909E-01
          0                 5           1             7   13     1      -0.5547188296E-05       7   13    1        -0.3265768446E-03      0.3429332742E-03

    ------------------------------------------------
       NWT REQUIRED            5 OUTER ITERATIONS 
       AND A TOTAL OF          9 INNER ITERATIONS.
    ------------------------------------------------

 NO OUTPUT CONTROL FOR STRESS PERIOD   20   TIME STEP    8
 
 SOLVING FOR HEAD 
                                                   Max.-Head-Change                         Max.-Flux-Residual
  Residual-Control   Outer-Iter.   Inner-Iter.     Column Row Layer    Maximum-Head-Change  Column Row Layer    Maximum-Flux-Residual          L2-NORM 
          0                 1           2             4    7     1      -0.7155172988E-01       4    7    1        -0.3747447645E+01      0.8493879989E+01
          0                 2           2             4   13     1      -0.1437785238E-01       4   13    1        -0.8451721818E+00      0.1686815398E+01
          0                 3           2             7   13     1      -0.2040115127E-02       7   13    1        -0.1137983604E+00      0.2362653262E+00
          0                 4           2             7   13     1       0.1388606647E-03       7   13    1         0.7957929186E-02      0.1156150336E-01
          0                 5           1             7   13     1      -0.5521114645E-05       7   13    1        -0.3250412374E-03      0.3418540095E-03

    ------------------------------------------------
       NWT REQUIRED            5 OUTER ITERATIONS 
       AND A TOTAL OF          9 INNER ITERATIONS.
    ------------------------------------------------

 NO OUTPUT CONTROL FOR STRESS PERIOD   20   TIME STEP    9
 
 SOLVING FOR HEAD 
                                                   Max.-Head-Change                         Max.-Flux-Residual
  Residual-Control   Outer-Iter.   Inner-Iter.     Column Row Layer    Maximum-Head-Change  Column Row Layer    Maximum-Flux-Residual          L2-NORM 
          0                 1           2             4    7     1      -0.7096061320E-01       4    7    1        -0.3717509517E+01      0.8372050136E+01
          0                 2           2             4   13     1      -0.1441825216E-01       4   13    1        -0.8475482508E+00      0.1684354238E+01
          0                 3           2             7   13     1      -0.2031705963E-02       7   13    1        -0.1133300157E+00      0.2354185960E+00
          0                 4           2             7   13     1       0.1382871539E-03       7   13    1         0.7925086429E-02      0.1151704684E-01
          0                 5           1             7   13     1      -0.5498333675E-05       7   13    1        -0.3237007732E-03      0.3404085791E-03

    ------------------------------------------------
       NWT REQUIRED            5 OUTER ITERATIONS 
       AND A TOTAL OF          9 INNER ITERATIONS.
    ------------------------------------------------

 NO OUTPUT CONTROL FOR STRESS PERIOD   20   TIME STEP   10
 
 SOLVING FOR HEAD 
                                                   Max.-Head-Change                         Max.-Flux-Residual
  Residual-Control   Outer-Iter.   Inner-Iter.     Column Row Layer    Maximum-Head-Change  Column Row Layer    Maximum-Flux-Residual          L2-NORM 
          0                 1           2             4    7     1      -0.7035624375E-01       4    7    1        -0.3686785506E+01      0.8255358379E+01
          0                 2           2             4   13     1      -0.1445508965E-01       4   13    1        -0.8497140468E+00      0.1681973455E+01
          0                 3           2             7   13     1      -0.2023547665E-02       7   13    1        -0.1128756472E+00      0.2346346988E+00
          0                 4           2             7   13     1       0.1377319674E-03       7   13    1         0.7893294328E-02      0.1147502096E-01
          0                 5           1             7   13     1      -0.5475185214E-05       7   13    1        -0.3223384610E-03      0.3390112897E-03

    ------------------------------------------------
       NWT REQUIRED            5 OUTER ITERATIONS 
       AND A TOTAL OF          9 INNER ITERATIONS.
    ------------------------------------------------

 NO OUTPUT CONTROL FOR STRESS PERIOD   20   TIME STEP   11
 
 SOLVING FOR HEAD 
                                                   Max.-Head-Change                         Max.-Flux-Residual
  Residual-Control   Outer-Iter.   Inner-Iter.     Column Row Layer    Maximum-Head-Change  Column Row Layer    Maximum-Flux-Residual          L2-NORM 
          0                 1           2             4    7     1      -0.6974037523E-01       4    7    1        -0.3655373751E+01      0.8143458691E+01
          0                 2           2             4   13     1      -0.1448874811E-01       4   13    1        -0.8516922520E+00      0.1679666295E+01
          0                 3           2             7   13     1      -0.2015624009E-02       7   13    1        -0.1124343524E+00      0.2338449859E+00
          0                 4           2             7   13     1       0.1371924619E-03       7   13    1         0.7862401711E-02      0.1143379000E-01
          0                 5           1             7   13     1      -0.5454999474E-05       7   13    1        -0.3211504309E-03      0.3379326649E-03

    ------------------------------------------------
       NWT REQUIRED            5 OUTER ITERATIONS 
       AND A TOTAL OF          9 INNER ITERATIONS.
    ------------------------------------------------

 NO OUTPUT CONTROL FOR STRESS PERIOD   20   TIME STEP   12
 
 SOLVING FOR HEAD 
                                                   Max.-Head-Change                         Max.-Flux-Residual
  Residual-Control   Outer-Iter.   Inner-Iter.     Column Row Layer    Maximum-Head-Change  Column Row Layer    Maximum-Flux-Residual          L2-NORM 
          0                 1           2             4    7     1      -0.6911494167E-01       4    7    1        -0.3623381650E+01      0.8036039335E+01
          0                 2           2             4   13     1      -0.1451946204E-01       4   13    1        -0.8534967438E+00      0.1677423342E+01
          0                 3           2             7   13     1      -0.2007931739E-02       7   13    1        -0.1120059486E+00      0.2331112745E+00
          0                 4           2             7   13     1       0.1366708085E-03       7   13    1         0.7832527806E-02      0.1139385698E-01
          0                 5           1             7   13     1      -0.5434480091E-05       7   13    1        -0.3199410767E-03      0.3365464094E-03

    ------------------------------------------------
       NWT REQUIRED            5 OUTER ITERATIONS 
       AND A TOTAL OF          9 INNER ITERATIONS.
    ------------------------------------------------

 NO OUTPUT CONTROL FOR STRESS PERIOD   20   TIME STEP   13
 
 SOLVING FOR HEAD 
                                                   Max.-Head-Change                         Max.-Flux-Residual
  Residual-Control   Outer-Iter.   Inner-Iter.     Column Row Layer    Maximum-Head-Change  Column Row Layer    Maximum-Flux-Residual          L2-NORM 
          0                 1           2             4    7     1      -0.6848116969E-01       4    7    1        -0.3590877508E+01      0.7932803905E+01
          0                 2           2             4   13     1      -0.1454756607E-01       4   13    1        -0.8551472860E+00      0.1675243086E+01
          0                 3           2             7   13     1      -0.2000456618E-02       7   13    1        -0.1115896449E+00      0.2323576181E+00
          0                 4           2             7   13     1       0.1361615539E-03       7   13    1         0.7803373675E-02      0.1135417498E-01
          0                 5           1             7   13     1      -0.5414974301E-05       7   13    1        -0.3187998545E-03      0.3350571576E-03

    ------------------------------------------------
       NWT REQUIRED            5 OUTER ITERATIONS 
       AND A TOTAL OF          9 INNER ITERATIONS.
    ------------------------------------------------

 NO OUTPUT CONTROL FOR STRESS PERIOD   20   TIME STEP   14
 
 SOLVING FOR HEAD 
                                                   Max.-Head-Change                         Max.-Flux-Residual
  Residual-Control   Outer-Iter.   Inner-Iter.     Column Row Layer    Maximum-Head-Change  Column Row Layer    Maximum-Flux-Residual          L2-NORM 
          0                 1           2             4    7     1      -0.6784078514E-01       4    7    1        -0.3557957427E+01      0.7833499017E+01
          0                 2           2             4   13     1      -0.1457326475E-01       4   13    1        -0.8566560473E+00      0.1673117156E+01
          0                 3           2             7   13     1      -0.1993194521E-02       7   13    1        -0.1111852068E+00      0.2316284793E+00
          0                 4           2             7   13     1       0.1356655912E-03       7   13    1         0.7774967336E-02      0.1131727301E-01
          0                 5           1             7   13     1      -0.5394475641E-05       7   13    1        -0.3175868364E-03      0.3340318440E-03

    ------------------------------------------------
       NWT REQUIRED            5 OUTER ITERATIONS 
       AND A TOTAL OF          9 INNER ITERATIONS.
    ------------------------------------------------

 NO OUTPUT CONTROL FOR STRESS PERIOD   20   TIME STEP   15
 
 SOLVING FOR HEAD 
                                                   Max.-Head-Change                         Max.-Flux-Residual
  Residual-Control   Outer-Iter.   Inner-Iter.     Column Row Layer    Maximum-Head-Change  Column Row Layer    Maximum-Flux-Residual          L2-NORM 
          0                 1           2             4    7     1      -0.6719479482E-01       4    7    1        -0.3524678271E+01      0.7737872040E+01
          0                 2           2             4   13     1      -0.1459675564E-01       4   13    1        -0.8580346467E+00      0.1671043176E+01
          0                 3           2             7   13     1      -0.1986134021E-02       7   13    1        -0.1107920016E+00      0.2309503266E+00
          0                 4           2             7   13     1       0.1351851424E-03       7   13    1         0.7747458145E-02      0.1128021328E-01
          0                 5           1             7   13     1      -0.5375033172E-05       7   13    1        -0.3164420054E-03      0.3327991755E-03

    ------------------------------------------------
       NWT REQUIRED            5 OUTER ITERATIONS 
       AND A TOTAL OF          9 INNER ITERATIONS.
    ------------------------------------------------

 NO OUTPUT CONTROL FOR STRESS PERIOD   20   TIME STEP   16
 
 SOLVING FOR HEAD 
                                                   Max.-Head-Change                         Max.-Flux-Residual
  Residual-Control   Outer-Iter.   Inner-Iter.     Column Row Layer    Maximum-Head-Change  Column Row Layer    Maximum-Flux-Residual          L2-NORM 
          0                 1           2             4    7     1      -0.6654418562E-01       4    7    1        -0.3491095003E+01      0.7645699037E+01
          0                 2           2             4   13     1      -0.1461832822E-01       4   13    1        -0.8593002095E+00      0.1669021069E+01
          0                 3           2             7   13     1      -0.1979271228E-02       7   13    1        -0.1104098177E+00      0.2302659191E+00
          0                 4           2             7   13     1       0.1347179215E-03       7   13    1         0.7721153357E-02      0.1124469536E-01
          0                 5           1             7   13     1      -0.5356406504E-05       7   13    1        -0.3153958151E-03      0.3317099782E-03

    ------------------------------------------------
       NWT REQUIRED            5 OUTER ITERATIONS 
       AND A TOTAL OF          9 INNER ITERATIONS.
    ------------------------------------------------

 NO OUTPUT CONTROL FOR STRESS PERIOD   20   TIME STEP   17
 
 SOLVING FOR HEAD 
                                                   Max.-Head-Change                         Max.-Flux-Residual
  Residual-Control   Outer-Iter.   Inner-Iter.     Column Row Layer    Maximum-Head-Change  Column Row Layer    Maximum-Flux-Residual          L2-NORM 
          0                 1           2             4    7     1      -0.6589089053E-01       4    7    1        -0.3457315539E+01      0.7556780087E+01
          0                 2           2             4   13     1      -0.1463808470E-01       4   13    1        -0.8604587972E+00      0.1667044363E+01
          0                 3           2             7   13     1      -0.1972596169E-02       7   13    1        -0.1100380932E+00      0.2296363435E+00
          0                 4           2             7   13     1       0.1342627369E-03       7   13    1         0.7695087663E-02      0.1121022350E-01
          0                 5           1             7   13     1      -0.5337722963E-05       7   13    1        -0.3142970540E-03      0.3304561090E-03

    ------------------------------------------------
       NWT REQUIRED            5 OUTER ITERATIONS 
       AND A TOTAL OF          9 INNER ITERATIONS.
    ------------------------------------------------

 NO OUTPUT CONTROL FOR STRESS PERIOD   20   TIME STEP   18
 
 SOLVING FOR HEAD 
                                                   Max.-Head-Change                         Max.-Flux-Residual
  Residual-Control   Outer-Iter.   Inner-Iter.     Column Row Layer    Maximum-Head-Change  Column Row Layer    Maximum-Flux-Residual          L2-NORM 
          0                 1           2             4    7     1      -0.6523513179E-01       4    7    1        -0.3423353294E+01      0.7470929679E+01
          0                 2           2             4   13     1      -0.1465625121E-01       4   13    1        -0.8615237509E+00      0.1665112619E+01
          0                 3           2             7   13     1      -0.1966102791E-02       7   13    1        -0.1096764921E+00      0.2289738708E+00
          0                 4           2             7   13     1       0.1338224369E-03       7   13    1         0.7669877278E-02      0.1117538348E-01
          0                 5           1             7   13     1      -0.5320806187E-05       7   13    1        -0.3132975244E-03      0.3356146441E-03

    ------------------------------------------------
       NWT REQUIRED            5 OUTER ITERATIONS 
       AND A TOTAL OF          9 INNER ITERATIONS.
    ------------------------------------------------

 NO OUTPUT CONTROL FOR STRESS PERIOD   20   TIME STEP   19
 
 SOLVING FOR HEAD 
                                                   Max.-Head-Change                         Max.-Flux-Residual
  Residual-Control   Outer-Iter.   Inner-Iter.     Column Row Layer    Maximum-Head-Change  Column Row Layer    Maximum-Flux-Residual          L2-NORM 
          0                 1           2             4    7     1      -0.6457814451E-01       4    7    1        -0.3389277115E+01      0.7387969126E+01
          0                 2           2             4   13     1      -0.1467290403E-01       4   13    1        -0.8624995843E+00      0.1663221903E+01
          0                 3           2             7   13     1      -0.1959784058E-02       7   13    1        -0.1093246172E+00      0.2283731157E+00
          0                 4           2             7   13     1       0.1333926440E-03       7   13    1         0.7645271472E-02      0.1114357450E-01
          0                 5           1             7   13     1      -0.5304030558E-05       7   13    1        -0.3123120300E-03      0.3280207355E-03

    ------------------------------------------------
       NWT REQUIRED            5 OUTER ITERATIONS 
       AND A TOTAL OF          9 INNER ITERATIONS.
    ------------------------------------------------

 NO OUTPUT CONTROL FOR STRESS PERIOD   20   TIME STEP   20
 
 SOLVING FOR HEAD 
                                                   Max.-Head-Change                         Max.-Flux-Residual
  Residual-Control   Outer-Iter.   Inner-Iter.     Column Row Layer    Maximum-Head-Change  Column Row Layer    Maximum-Flux-Residual          L2-NORM 
          0                 1           2             4    7     1      -0.6392111167E-01       4    7    1        -0.3355153301E+01      0.7307744717E+01
          0                 2           2             4   13     1      -0.1468823714E-01       4   13    1        -0.8633977861E+00      0.1661370631E+01
          0                 3           2             7   13     1      -0.1953633129E-02       7   13    1        -0.1089820903E+00      0.2277491197E+00
          0                 4           2             7   13     1       0.1329742550E-03       7   13    1         0.7621312888E-02      0.1111090230E-01
          0                 5           1             7   13     1      -0.5287865341E-05       7   13    1        -0.3113596549E-03      0.3274268464E-03

    ------------------------------------------------
       NWT REQUIRED            5 OUTER ITERATIONS 
       AND A TOTAL OF          9 INNER ITERATIONS.
    ------------------------------------------------

 NO OUTPUT CONTROL FOR STRESS PERIOD   20   TIME STEP   21
 
 SOLVING FOR HEAD 
                                                   Max.-Head-Change                         Max.-Flux-Residual
  Residual-Control   Outer-Iter.   Inner-Iter.     Column Row Layer    Maximum-Head-Change  Column Row Layer    Maximum-Flux-Residual          L2-NORM 
          0                 1           2             4    7     1      -0.6326426970E-01       4    7    1        -0.3320996308E+01      0.7230117154E+01
          0                 2           2             4   13     1      -0.1470235603E-01       4   13    1        -0.8642245412E+00      0.1659560347E+01
          0                 3           2             7   13     1      -0.1947646308E-02       7   13    1        -0.1086487079E+00      0.2271308357E+00
          0                 4           2             7   13     1       0.1325672456E-03       7   13    1         0.7598067833E-02      0.1107840158E-01
          0                 5           1             7   13     1      -0.5269833429E-05       7   13    1        -0.3103050622E-03      0.3262430251E-03

    ------------------------------------------------
       NWT REQUIRED            5 OUTER ITERATIONS 
       AND A TOTAL OF          9 INNER ITERATIONS.
    ------------------------------------------------

 NO OUTPUT CONTROL FOR STRESS PERIOD   20   TIME STEP   22
 
 SOLVING FOR HEAD 
                                                   Max.-Head-Change                         Max.-Flux-Residual
  Residual-Control   Outer-Iter.   Inner-Iter.     Column Row Layer    Maximum-Head-Change  Column Row Layer    Maximum-Flux-Residual          L2-NORM 
          0                 1           2             4    7     1      -0.6260895846E-01       4    7    1        -0.3286880258E+01      0.7154963358E+01
          0                 2           2             4   13     1      -0.1471535283E-01       4   13    1        -0.8649852946E+00      0.1657789424E+01
          0                 3           2             7   13     1      -0.1941813174E-02       7   13    1        -0.1083238843E+00      0.2265627152E+00
          0                 4           2             7   13     1       0.1321655865E-03       7   13    1         0.7575067122E-02      0.1104823762E-01
          0                 5           1             7   13     1      -0.5249916169E-05       7   13    1        -0.3091313911E-03      0.3250728631E-03

    ------------------------------------------------
       NWT REQUIRED            5 OUTER ITERATIONS 
       AND A TOTAL OF          9 INNER ITERATIONS.
    ------------------------------------------------

 NO OUTPUT CONTROL FOR STRESS PERIOD   20   TIME STEP   23
 
 SOLVING FOR HEAD 
                                                   Max.-Head-Change                         Max.-Flux-Residual
  Residual-Control   Outer-Iter.   Inner-Iter.     Column Row Layer    Maximum-Head-Change  Column Row Layer    Maximum-Flux-Residual          L2-NORM 
          0                 1           2             4    7     1      -0.6195554959E-01       4    7    1        -0.3252827503E+01      0.7082120738E+01
          0                 2           2             4   13     1      -0.1472735045E-01       4   13    1        -0.8656873137E+00      0.1656054577E+01
          0                 3           2             7   13     1      -0.1936129955E-02       7   13    1        -0.1080074160E+00      0.2259961062E+00
          0                 4           2             7   13     1       0.1317833636E-03       7   13    1         0.7553185797E-02      0.1101886935E-01
          0                 5           1             7   13     1      -0.5240710941E-05       7   13    1        -0.3085893677E-03      0.3245411672E-03

    ------------------------------------------------
       NWT REQUIRED            5 OUTER ITERATIONS 
       AND A TOTAL OF          9 INNER ITERATIONS.
    ------------------------------------------------

 NO OUTPUT CONTROL FOR STRESS PERIOD   20   TIME STEP   24
 
 SOLVING FOR HEAD 
                                                   Max.-Head-Change                         Max.-Flux-Residual
  Residual-Control   Outer-Iter.   Inner-Iter.     Column Row Layer    Maximum-Head-Change  Column Row Layer    Maximum-Flux-Residual          L2-NORM 
          0                 1           2             4    7     1      -0.6130468962E-01       4    7    1        -0.3218874407E+01      0.7011494494E+01
          0                 2           2             4   13     1      -0.1473842305E-01       4   13    1        -0.8663349755E+00      0.1654355204E+01
          0                 3           2             7   13     1      -0.1930590600E-02       7   13    1        -0.1076989587E+00      0.2254563652E+00
          0                 4           2             7   13     1       0.1314052871E-03       7   13    1         0.7531538121E-02      0.1099080515E-01
          0                 5           1             7   13     1      -0.5224507271E-05       7   13    1        -0.3076352145E-03      0.3238265706E-03

    ------------------------------------------------
       NWT REQUIRED            5 OUTER ITERATIONS 
       AND A TOTAL OF          9 INNER ITERATIONS.
    ------------------------------------------------

 NO OUTPUT CONTROL FOR STRESS PERIOD   20   TIME STEP   25
 
 SOLVING FOR HEAD 
                                                   Max.-Head-Change                         Max.-Flux-Residual
  Residual-Control   Outer-Iter.   Inner-Iter.     Column Row Layer    Maximum-Head-Change  Column Row Layer    Maximum-Flux-Residual          L2-NORM 
          0                 1           2             4    7     1      -0.6065692983E-01       4    7    1        -0.3185052260E+01      0.6942976955E+01
          0                 2           2             4   13     1      -0.1474865066E-01       4   13    1        -0.8669329899E+00      0.1652694100E+01
          0                 3           2             7   13     1      -0.1925192411E-02       7   13    1        -0.1073983647E+00      0.2249105083E+00
          0                 4           2             7   13     1       0.1310385331E-03       7   13    1         0.7510537737E-02      0.1096131171E-01
          0                 5           1             7   13     1      -0.5210573709E-05       7   13    1        -0.3068158471E-03      0.3226435084E-03

    ------------------------------------------------
       NWT REQUIRED            5 OUTER ITERATIONS 
       AND A TOTAL OF          9 INNER ITERATIONS.
    ------------------------------------------------

 NO OUTPUT CONTROL FOR STRESS PERIOD   20   TIME STEP   26
 
 SOLVING FOR HEAD 
                                                   Max.-Head-Change                         Max.-Flux-Residual
  Residual-Control   Outer-Iter.   Inner-Iter.     Column Row Layer    Maximum-Head-Change  Column Row Layer    Maximum-Flux-Residual          L2-NORM 
          0                 1           2             4    7     1      -0.6001282042E-01       4    7    1        -0.3151392386E+01      0.6876466819E+01
          0                 2           2             4   13     1      -0.1475814359E-01       4   13    1        -0.8674878618E+00      0.1651061632E+01
          0                 3           2             7   13     1      -0.1919928614E-02       7   13    1        -0.1071052569E+00      0.2244039506E+00
          0                 4           2             7   13     1       0.1306790623E-03       7   13    1         0.7489958467E-02      0.1093415698E-01
          0                 5           1             7   13     1      -0.5196453177E-05       7   13    1        -0.3059842302E-03      0.3215909854E-03

    ------------------------------------------------
       NWT REQUIRED            5 OUTER ITERATIONS 
       AND A TOTAL OF          9 INNER ITERATIONS.
    ------------------------------------------------

 NO OUTPUT CONTROL FOR STRESS PERIOD   20   TIME STEP   27
 
 SOLVING FOR HEAD 
                                                   Max.-Head-Change                         Max.-Flux-Residual
  Residual-Control   Outer-Iter.   Inner-Iter.     Column Row Layer    Maximum-Head-Change  Column Row Layer    Maximum-Flux-Residual          L2-NORM 
          0                 1           2             4    7     1      -0.5937307672E-01       4    7    1        -0.3117935026E+01      0.6811876892E+01
          0                 2           2             4   13     1      -0.1476690277E-01       4   13    1        -0.8679996587E+00      0.1649465551E+01
          0                 3           2             7   13     1      -0.1914794825E-02       7   13    1        -0.1068193912E+00      0.2238819255E+00
          0                 4           2             7   13     1       0.1303325687E-03       7   13    1         0.7470120398E-02      0.1090721815E-01
          0                 5           1             7   13     1      -0.5183529754E-05       7   13    1        -0.3052248776E-03      0.3208920188E-03

    ------------------------------------------------
       NWT REQUIRED            5 OUTER ITERATIONS 
       AND A TOTAL OF          9 INNER ITERATIONS.
    ------------------------------------------------

 NO OUTPUT CONTROL FOR STRESS PERIOD   20   TIME STEP   28
 
 SOLVING FOR HEAD 
                                                   Max.-Head-Change                         Max.-Flux-Residual
  Residual-Control   Outer-Iter.   Inner-Iter.     Column Row Layer    Maximum-Head-Change  Column Row Layer    Maximum-Flux-Residual          L2-NORM 
          0                 1           2             4    7     1      -0.5873759260E-01       4    7    1        -0.3084676073E+01      0.6749097688E+01
          0                 2           2             4   13     1      -0.1477504502E-01       4   13    1        -0.8684752473E+00      0.1647903552E+01
          0                 3           2             7   13     1      -0.1909785876E-02       7   13    1        -0.1065404802E+00      0.2234012425E+00
          0                 4           2             7   13     1       0.1299894709E-03       7   13    1         0.7450480031E-02      0.1088138333E-01
          0                 5           1             7   13     1      -0.5169100447E-05       7   13    1        -0.3043762940E-03      0.3199627672E-03

    ------------------------------------------------
       NWT REQUIRED            5 OUTER ITERATIONS 
       AND A TOTAL OF          9 INNER ITERATIONS.
    ------------------------------------------------

 NO OUTPUT CONTROL FOR STRESS PERIOD   20   TIME STEP   29
 
 SOLVING FOR HEAD 
                                                   Max.-Head-Change                         Max.-Flux-Residual
  Residual-Control   Outer-Iter.   Inner-Iter.     Column Row Layer    Maximum-Head-Change  Column Row Layer    Maximum-Flux-Residual          L2-NORM 
          0                 1           2             4    7     1      -0.8366187549E-01       4    7    1        -0.4385920479E+01      0.9741373004E+01
          0                 2           2             4   13     1      -0.1137682267E-01       4   13    1        -0.6687619556E+00      0.1502539817E+01
          0                 3           2             7   13     1      -0.1969540247E-02       7   13    1        -0.1098336996E+00      0.2324787255E+00
          0                 4           2             7   13     1       0.1340566936E-03       7   13    1         0.7681946378E-02      0.1132995602E-01
          0                 5           1             7   13     1      -0.5330223482E-05       7   13    1        -0.3138411785E-03      0.3309632710E-03

    ------------------------------------------------
       NWT REQUIRED            5 OUTER ITERATIONS 
       AND A TOTAL OF          9 INNER ITERATIONS.
    ------------------------------------------------

 NO OUTPUT CONTROL FOR STRESS PERIOD   20   TIME STEP   30



 STREAM LISTING     PERIOD     20   STEP       30

 LAYER ROW COL. STREAM  RCH.  FLOW INTO     FLOW TO   FLOW OUT OF   OVRLND.     DIRECT     STREAM       STREAM     STREAM     STREAM   STREAMBED  STREAMBED
                SEG.NO.  NO.  STRM. RCH.    AQUIFER    STRM. RCH.    RUNOFF     PRECIP       ET          HEAD       DEPTH      WIDTH   CONDCTNC.   GRADIENT

   1    1    1     1     1    3.2276E+01  2.7609E-01   3.2000E+01  0.000E+00  0.000E+00  0.000E+00  1.09432E+03  1.269E+00  1.437E+01  6.467E-02  1.423E+00
   1    2    2     1     2    3.2000E+01  4.2738E-01   3.1573E+01  0.000E+00  0.000E+00  0.000E+00  1.08932E+03  1.266E+00  1.431E+01  1.002E-01  1.422E+00
   1    3    3     1     3    3.1573E+01  3.6428E-01   3.1209E+01  0.000E+00  0.000E+00  0.000E+00  1.08368E+03  1.263E+00  1.424E+01  8.546E-02  1.421E+00
   1    3    4     1     4    3.1209E+01  3.3528E-01   3.0873E+01  0.000E+00  0.000E+00  0.000E+00  1.07867E+03  1.259E+00  1.418E+01  7.871E-02  1.420E+00
   1    4    5     2     1    2.8873E+01  3.3633E-01   2.8537E+01  0.000E+00  0.000E+00  0.000E+00  1.07325E+03  1.312E+00  1.200E+01  7.800E-02  1.437E+00
   1    5    6     2     2    2.8537E+01  2.5823E-01   2.8279E+01  0.000E+00  0.000E+00  0.000E+00  1.06781E+03  1.304E+00  1.200E+01  6.000E-02  1.435E+00
   1    6    6     2     3    2.8279E+01  2.5780E-01   2.8021E+01  0.000E+00  0.000E+00  0.000E+00  1.06309E+03  1.297E+00  1.200E+01  6.000E-02  1.432E+00
   1    7    6     2     4    2.8021E+01  2.5737E-01   2.7764E+01  0.000E+00  0.000E+00  0.000E+00  1.05836E+03  1.290E+00  1.200E+01  6.000E-02  1.430E+00
   1    8    6     2     5    2.7764E+01  2.5694E-01   2.7507E+01  0.000E+00  0.000E+00  0.000E+00  1.05364E+03  1.282E+00  1.200E+01  6.000E-02  1.427E+00
   1    3    5     3     1    2.0000E+00  2.8252E-01   1.7175E+00  0.000E+00  0.000E+00  0.000E+00  1.07555E+03  1.909E+00  9.636E+00  7.227E-02  1.955E+00
   1    3    6     3     2    1.7175E+00  2.4905E-01   1.4684E+00  0.000E+00  0.000E+00  0.000E+00  1.07264E+03  1.727E+00  8.909E+00  6.682E-02  1.864E+00
   1    3    7     3     3    1.4684E+00  1.9718E-01   1.2712E+00  0.000E+00  0.000E+00  0.000E+00  1.06987E+03  1.555E+00  8.218E+00  5.547E-02  1.777E+00
   1    4    8     3     4    1.2712E+00  2.2567E-01   1.0456E+00  0.000E+00  0.000E+00  0.000E+00  1.06682E+03  1.364E+00  7.455E+00  6.709E-02  1.682E+00
   1    5    8     3     5    1.0456E+00  1.5790E-01   8.8768E-01  0.000E+00  0.000E+00  0.000E+00  1.06362E+03  1.164E+00  6.655E+00  4.991E-02  1.582E+00
   1    6    8     3     6    8.8768E-01  5.5980E-02   8.3170E-01  0.000E+00  0.000E+00  0.000E+00  1.06158E+03  1.036E+00  6.145E+00  1.844E-02  1.518E+00
   1    5   10     4     1    1.0000E+01  9.0919E-02   9.9091E+00  0.000E+00  0.000E+00  0.000E+00  1.07836E+03  6.368E-01  1.000E+01  2.500E-02  1.212E+00
   1    5    9     4     2    9.9091E+00  1.8158E-01   9.7275E+00  0.000E+00  0.000E+00  0.000E+00  1.07154E+03  6.315E-01  1.000E+01  5.000E-02  1.211E+00
   1    6    8     4     3    9.7275E+00  1.2689E-01   9.6006E+00  0.000E+00  0.000E+00  0.000E+00  1.06381E+03  6.256E-01  1.000E+01  3.500E-02  1.209E+00
   1    6    8     5     1    1.0432E+01  2.2686E-01   1.0205E+01  0.000E+00  0.000E+00  0.000E+00  1.05868E+03  6.790E-01  1.542E+01  6.166E-02  1.226E+00
   1    7    7     5     2    1.0205E+01  2.7894E-01   9.9265E+00  0.000E+00  0.000E+00  0.000E+00  1.05417E+03  6.732E-01  1.519E+01  7.594E-02  1.224E+00
   1    8    7     5     3    9.9265E+00  1.9221E-01   9.7343E+00  0.000E+00  0.000E+00  0.000E+00  1.04992E+03  6.676E-01  1.497E+01  5.241E-02  1.223E+00
   1    8    6     5     4    9.7343E+00  1.3577E-01   9.5985E+00  0.000E+00  0.000E+00  0.000E+00  1.04691E+03  6.637E-01  1.482E+01  3.706E-02  1.221E+00
   1    9    6     6     1    9.5985E+00  2.2097E-01   9.3776E+00  0.000E+00  0.000E+00  0.000E+00  1.04341E+03  6.828E-01  1.200E+01  6.000E-02  1.228E+00
   1   10    7     6     2    9.3776E+00  2.2039E-01   9.1572E+00  0.000E+00  0.000E+00  0.000E+00  1.03885E+03  6.732E-01  1.200E+01  6.000E-02  1.224E+00
   1   11    7     6     3    9.1572E+00  2.1981E-01   8.9374E+00  0.000E+00  0.000E+00  0.000E+00  1.03430E+03  6.636E-01  1.200E+01  6.000E-02  1.221E+00
   1   12    7     6     4    8.9374E+00  2.1923E-01   8.7181E+00  0.000E+00  0.000E+00  0.000E+00  1.02974E+03  6.539E-01  1.200E+01  6.000E-02  1.218E+00
   1   13    7     6     5    8.7181E+00 -1.2981E-01   8.8479E+00  0.000E+00  0.000E+00  0.000E+00  1.02656E+03  6.519E-01  1.200E+01  2.400E-01 -1.803E-01
   1   14    9     7     1    1.5000E+02  1.3362E+00   1.4866E+02  0.000E+00  0.000E+00  0.000E+00  1.03987E+03  2.288E+00  5.529E+01  5.593E-01  7.963E-01
   1   13    8     7     2    1.4866E+02  1.8206E+00   1.4684E+02  0.000E+00  0.000E+00  0.000E+00  1.03478E+03  2.279E+00  5.526E+01  6.148E-01  9.871E-01
   1   13    7     7     3    1.4684E+02  1.4454E+00   1.4540E+02  0.000E+00  0.000E+00  0.000E+00  1.02969E+03  2.271E+00  5.522E+01  5.585E-01  8.627E-01
   1   13    6     8     1    1.5425E+02  8.0234E-01   1.5344E+02  0.000E+00  0.000E+00  0.000E+00  1.02472E+03  2.844E+00  4.123E+01  4.202E-01  6.365E-01
   1   13    5     8     2    1.5344E+02  8.0033E-02   1.5336E+02  0.000E+00  0.000E+00  0.000E+00  1.01847E+03  2.841E+00  4.119E+01  4.197E-01  6.356E-02
   1   13    4     8     3    1.5336E+02 -2.7396E+00   1.5610E+02  0.000E+00  0.000E+00  0.000E+00  1.01222E+03  2.850E+00  4.132E+01  4.211E+00 -2.169E-01
   1   13    3     8     4    1.5610E+02 -3.8035E+00   1.5991E+02  0.000E+00  0.000E+00  0.000E+00  1.00600E+03  2.872E+00  4.165E+01  4.244E+00 -2.987E-01
   1   13    2     8     5    1.5991E+02 -2.6549E+00   1.6256E+02  0.000E+00  0.000E+00  0.000E+00  9.99769E+02  2.894E+00  4.197E+01  4.276E+00 -2.069E-01
   1   13    1     8     6    1.6256E+02 -2.0461E+00   1.6461E+02  0.000E+00  0.000E+00  0.000E+00  9.94785E+02  2.910E+00  4.219E+01  2.580E+00 -2.644E-01
   1    8    6     9     1    2.7507E+01  0.0000E+00   2.7507E+01  0.000E+00  0.000E+00  0.000E+00  1.08291E+03  4.158E+00  4.000E+00  0.000E+00  2.386E+00
   1    8    5     9     2    2.7507E+01  0.0000E+00   2.7507E+01  0.000E+00  0.000E+00  0.000E+00  1.08241E+03  4.158E+00  4.000E+00  0.000E+00  2.386E+00





UNSATURATED ZONE PACKAGE VOLUMETRIC BUDGET FOR  TIME STEP    30 STRESS PERIOD   20
  ------------------------------------------------------------------------------



     CUMULATIVE VOLUMES      L**3       RATES FOR THIS TIME STEP      L**3/T
     ------------------                 ------------------------

           IN:                                      IN:
           ---                                      ---
        INFILTRATION =   864518897.1843          INFILTRATION =          64.2425

          OUT:                                     OUT:
          ----                                     ----
              UZF ET =   805447048.8521                UZF ET =          64.1075
        UZF RECHARGE =      654072.9065          UZF RECHARGE =       0.0000E+00

            IN - OUT =    58417775.4258              IN - OUT =           0.1350

          STORAGE:                                 STORAGE:
          --------                                 --------
      STORAGE CHANGE =    58418364.4280        STORAGE CHANGE =           0.1350

 PERCENT DISCREPANCY IS DIFFERENCE BETWEEN IN-OUT MINUS CHANGE IN STORAGE
 DIVIDED BY THE AVERAGE OF IN AND OUT TIMES 100

 PERCENT DISCREPANCY =          -0.00     PERCENT DISCREPANCY =           0.00






1
  VOLUMETRIC BUDGET FOR ENTIRE MODEL AT END OF TIME STEP   30, STRESS PERIOD  20
  ------------------------------------------------------------------------------

     CUMULATIVE VOLUMES      L**3       RATES FOR THIS TIME STEP      L**3/T
     ------------------                 ------------------------

           IN:                                      IN:
           ---                                      ---
               AG WELLS  =   109048752.0000                 AG WELLS  =          32.3278
      DIVERSION SEGMENTS =   535143744.0000        DIVERSION SEGMENTS =          27.5067
           GW IRRIGATION =           0.0000             GW IRRIGATION =           0.0000
           SW IRRIGATION =           0.0000             SW IRRIGATION =           0.0000
        SYSTEM LOSSES GW =           0.0000          SYSTEM LOSSES GW =           0.0000
        SYSTEM LOSSES SW =           0.0000          SYSTEM LOSSES SW =           0.0000

                TOTAL IN =   644192512.0000                  TOTAL IN =          59.8345

          OUT:                                     OUT:
          ----                                     ----
               AG WELLS  =           0.0000                 AG WELLS  =           0.0000
      DIVERSION SEGMENTS =           0.0000        DIVERSION SEGMENTS =           0.0000
           GW IRRIGATION =   109048752.0000             GW IRRIGATION =          32.3278
           SW IRRIGATION =   535154752.0000             SW IRRIGATION =          27.5073
        SYSTEM LOSSES GW =           0.0000          SYSTEM LOSSES GW =           0.0000
        SYSTEM LOSSES SW =           0.0000          SYSTEM LOSSES SW =           0.0000

               TOTAL OUT =   644203520.0000                 TOTAL OUT =          59.8350

                IN - OUT =      -11008.0000                  IN - OUT =      -5.4932E-04

     PERCENT DISCREPANCY =          -0.00         PERCENT DISCREPANCY =          -0.00



1
  VOLUMETRIC BUDGET FOR ENTIRE MODEL AT END OF TIME STEP   30, STRESS PERIOD  20
  ------------------------------------------------------------------------------

     CUMULATIVE VOLUMES      L**3       RATES FOR THIS TIME STEP      L**3/T
     ------------------                 ------------------------

           IN:                                      IN:
           ---                                      ---
             STORAGE     =   159868784.0000               STORAGE     =          32.6125
       CONSTANT HEAD     =           0.0000         CONSTANT HEAD     =           0.0000
     HEAD DEP BOUNDS     =    14304600.0000       HEAD DEP BOUNDS     =           0.2858
      STREAM LEAKAGE     =   601046848.0000        STREAM LEAKAGE     =          11.5360
        UZF RECHARGE     =      654073.0000          UZF RECHARGE     =           0.0000
               GW ET     =           0.0000                 GW ET     =           0.0000
     SURFACE LEAKAGE     =           0.0000       SURFACE LEAKAGE     =           0.0000
           AG WELLS      =           0.0000             AG WELLS      =           0.0000

                TOTAL IN =   775874304.0000                  TOTAL IN =          44.4343

          OUT:                                     OUT:
          ----                                     ----
             STORAGE     =   106038040.0000               STORAGE     =           0.4447
       CONSTANT HEAD     =           0.0000         CONSTANT HEAD     =           0.0000
     HEAD DEP BOUNDS     =    14574426.0000       HEAD DEP BOUNDS     =           0.2880
      STREAM LEAKAGE     =   543986752.0000        STREAM LEAKAGE     =          11.3738
        UZF RECHARGE     =           0.0000          UZF RECHARGE     =           0.0000
               GW ET     =     2231806.7500                 GW ET     =           0.0000
     SURFACE LEAKAGE     =           0.0000       SURFACE LEAKAGE     =           0.0000
           AG WELLS      =   109048752.0000             AG WELLS      =          32.3278

               TOTAL OUT =   775879808.0000                 TOTAL OUT =          44.4343

                IN - OUT =       -5504.0000                  IN - OUT =       3.8147E-06

     PERCENT DISCREPANCY =          -0.00         PERCENT DISCREPANCY =           0.00






         TIME SUMMARY AT END OF TIME STEP   30 IN STRESS PERIOD   20
                    SECONDS     MINUTES      HOURS       DAYS        YEARS
                    -----------------------------------------------------------
   TIME STEP LENGTH  87667.      1461.1      24.352      1.0147     2.77799E-03
 STRESS PERIOD TIME 2.63000E+06  43833.      730.56      30.440     8.33397E-02
         TOTAL TIME 5.00565E+07 8.34276E+05  13905.      579.36      1.5862    
1
1
                            STRESS PERIOD NO.   21, LENGTH =   2630000.    
                            -----------------------------------------------

                              NUMBER OF TIME STEPS =    30

                               MULTIPLIER FOR DELT =     1.000

                            INITIAL TIME STEP SIZE =   87666.66    

 REUSING NON-PARAMETER GHB CELLS FROM LAST STRESS PERIOD

      2 GHB CELLS

 REUSING STREAM SEGMENT DATA FROM LAST STRESS PERIOD



            AREAL INFILTRATION RATE
 READING ON UNIT   19 WITH FORMAT: (10F4.0)            

            1           2           3           4           5           6           7           8           9          10
 ........................................................................................................................
   1   1.2000E-09   0.000       0.000       0.000       0.000       0.000       0.000       0.000       0.000       0.000    
   2   2.1000E-09  2.0000E-09  8.0000E-10  8.5000E-09   0.000       0.000       0.000       0.000       0.000       0.000    
   3   5.0000E-10  1.1000E-09  8.8000E-09  5.5000E-09   0.000       0.000       0.000       0.000       0.000       0.000    
   4   8.5000E-09  1.1000E-09  1.1000E-09  1.1000E-09  2.0000E-09   0.000       0.000       0.000       0.000       0.000    
   5   8.5000E-09  1.1000E-09  1.1000E-09  1.1000E-09  1.1000E-09   0.000       0.000       0.000       0.000       0.000    
   6   8.5000E-09  5.2000E-09  2.1000E-09  1.1000E-09  1.5000E-09   0.000       0.000       0.000       0.000       0.000    
   7   8.5000E-09  5.2000E-09  2.1000E-09  1.2000E-09  2.0000E-09   0.000       0.000       0.000       0.000       0.000    
   8   5.0000E-10  5.2000E-09  2.1000E-09  1.2000E-09  5.0000E-09   0.000       0.000       0.000       0.000       0.000    
   9   5.0000E-10  5.2000E-09  2.1000E-09  1.2000E-09  5.0000E-09   0.000       0.000       0.000       0.000       0.000    
  10   5.0000E-10  5.2000E-09  2.1000E-09  1.2000E-09  5.8000E-09   0.000       0.000       0.000       0.000       0.000    
  11   1.0000E-10  1.1000E-09  1.1000E-09  1.2000E-09  5.0000E-09   0.000       0.000       0.000       0.000       0.000    
  12   1.1000E-09  1.1000E-09  1.1000E-09  1.1000E-09  2.0000E-09   0.000       0.000       0.000       0.000       0.000    
  13   1.1000E-09  2.2000E-09  2.2000E-09  2.1000E-09  1.0000E-09   0.000       0.000       0.000       0.000       0.000    
  14   2.0000E-10  5.5000E-09  5.5000E-09  5.2000E-09  1.0000E-09   0.000       0.000       0.000       0.000       0.000    
  15    0.000      8.8000E-09  8.8000E-09   0.000       0.000       0.000       0.000       0.000       0.000       0.000    

                  ET RATE =  3.250000E-07

 USING ET EXTINCTION DEPTH FROM PREVIOUS STRESS PERIOD. CURRENT PERIOD IS:      21

 USING EXTINCTION WATER CONTENT FROM PREVIOUS STRESS PERIOD. CURRENT PERIOD IS:      21

 USING AIR ENTRY PRESSURE FROM PREVIOUS STRESS PERIOD. CURRENT PERIOD IS:      21

 USING ROOT PRESSURE HEAD FROM PREVIOUS STRESS PERIOD. CURRENT PERIOD IS:      21

 USING ROOT ACTIVITY FROM PREVIOUS STRESS PERIOD. CURRENT PERIOD IS:      21

 PROCESSING AG STRESS PERIOD DATA

 READING AG STRESS PERIOD DATA

 READING IRRIGATION SEGMENT

 READING IRRIGATION WELL

 READING SUPPLEMENTAL WELL

 END PROCESSING AG STRESS PERIOD DATA OPTIONS
 
 SOLVING FOR HEAD 
                                                   Max.-Head-Change                         Max.-Flux-Residual
  Residual-Control   Outer-Iter.   Inner-Iter.     Column Row Layer    Maximum-Head-Change  Column Row Layer    Maximum-Flux-Residual          L2-NORM 
          0                 1           2             4    7     1      -0.6100345570E-01       4    7    1        -0.3203379734E+01      0.6953307903E+01
          0                 2           2             4   13     1      -0.9529402806E-02       4   13    1        -0.5601871743E+00      0.1183022004E+01
          0                 3           2             7   13     1      -0.2002610802E-02       7   13    1        -0.1116691909E+00      0.2127629761E+00
          0                 4           2             7   13     1       0.1363098370E-03       7   13    1         0.7811669505E-02      0.1074130789E-01
          0                 5           1             7   13     1      -0.5418878544E-05       7   13    1        -0.3191354072E-03      0.3326383286E-03

    ------------------------------------------------
       NWT REQUIRED            5 OUTER ITERATIONS 
       AND A TOTAL OF          9 INNER ITERATIONS.
    ------------------------------------------------

 NO OUTPUT CONTROL FOR STRESS PERIOD   21   TIME STEP    1
 
 SOLVING FOR HEAD 
                                                   Max.-Head-Change                         Max.-Flux-Residual
  Residual-Control   Outer-Iter.   Inner-Iter.     Column Row Layer    Maximum-Head-Change  Column Row Layer    Maximum-Flux-Residual          L2-NORM 
          0                 1           2             4    7     1      -0.6032898998E-01       4    7    1        -0.3168065267E+01      0.6886048950E+01
          0                 2           2             4   13     1      -0.9534859277E-02       4   13    1        -0.5605053846E+00      0.1179521932E+01
          0                 3           2             7   13     1      -0.1997948674E-02       7   13    1        -0.1114095923E+00      0.2142985494E+00
          0                 4           2             7   13     1       0.1359889969E-03       7   13    1         0.7793302988E-02      0.1078331763E-01
          0                 5           1             7   13     1      -0.5406445569E-05       7   13    1        -0.3184029720E-03      0.3322379358E-03

    ------------------------------------------------
       NWT REQUIRED            5 OUTER ITERATIONS 
       AND A TOTAL OF          9 INNER ITERATIONS.
    ------------------------------------------------

 NO OUTPUT CONTROL FOR STRESS PERIOD   21   TIME STEP    2
 
 SOLVING FOR HEAD 
                                                   Max.-Head-Change                         Max.-Flux-Residual
  Residual-Control   Outer-Iter.   Inner-Iter.     Column Row Layer    Maximum-Head-Change  Column Row Layer    Maximum-Flux-Residual          L2-NORM 
          0                 1           2             4    7     1      -0.5965924690E-01       4    7    1        -0.3132977375E+01      0.6820506283E+01
          0                 2           2             4   13     1      -0.9539938904E-02       4   13    1        -0.5608015164E+00      0.1176112044E+01
          0                 3           2             7   13     1      -0.1993398868E-02       7   13    1        -0.1111431636E+00      0.2158827539E+00
          0                 4           2             7   13     1       0.1356791049E-03       7   13    1         0.7774055488E-02      0.1082412661E-01
          0                 5           1             7   13     1      -0.5393385373E-05       7   13    1        -0.3175501515E-03      0.3315596784E-03

    ------------------------------------------------
       NWT REQUIRED            5 OUTER ITERATIONS 
       AND A TOTAL OF          9 INNER ITERATIONS.
    ------------------------------------------------

 NO OUTPUT CONTROL FOR STRESS PERIOD   21   TIME STEP    3
 
 SOLVING FOR HEAD 
                                                   Max.-Head-Change                         Max.-Flux-Residual
  Residual-Control   Outer-Iter.   Inner-Iter.     Column Row Layer    Maximum-Head-Change  Column Row Layer    Maximum-Flux-Residual          L2-NORM 
          0                 1           2             4    7     1      -0.4830488334E-01       4    7    1        -0.2540008877E+01      0.5523286291E+01
          0                 2           2             4   13     1      -0.9544666666E-02       4   13    1        -0.5610770724E+00      0.1010248765E+01
          0                 3           2             4    7     1      -0.3162737494E-02       4    7    1        -0.1746330686E+00      0.4381081239E+00
          0                 4           2             4    7     1      -0.2948462776E-02       5    7    1        -0.1631304702E+00      0.3910589868E+00
          0                 5           2             4    7     1      -0.1554990122E-02       5    7    1        -0.8607031490E-01      0.2033527144E+00
          0                 6           2             5    6     1       0.1403072511E-03       5    6    1         0.7853926507E-02      0.1306828488E-01
          0                 7           1             5    6     1      -0.9554406967E-05       5    6    1        -0.5564372314E-03      0.7903140619E-03

    ------------------------------------------------
       NWT REQUIRED            7 OUTER ITERATIONS 
       AND A TOTAL OF         13 INNER ITERATIONS.
    ------------------------------------------------

 NO OUTPUT CONTROL FOR STRESS PERIOD   21   TIME STEP    4
 
 SOLVING FOR HEAD 
                                                   Max.-Head-Change                         Max.-Flux-Residual
  Residual-Control   Outer-Iter.   Inner-Iter.     Column Row Layer    Maximum-Head-Change  Column Row Layer    Maximum-Flux-Residual          L2-NORM 
          0                 1           2             4    7     1      -0.4724062946E-01       4    7    1        -0.2484289395E+01      0.5421640423E+01
          0                 2           2             4   13     1      -0.9549035927E-02       4   13    1        -0.5613316061E+00      0.1011503971E+01
          0                 3           2             4    6     1      -0.3379749509E-02       4    7    1        -0.1829882820E+00      0.4571700436E+00
          0                 4           2             4    7     1      -0.2821521957E-02       5    7    1        -0.1561404134E+00      0.3692815444E+00
          0                 5           2             4    7     1      -0.1710924122E-02       5    7    1        -0.9465903811E-01      0.2214494667E+00
          0                 6           2             4    6     1       0.1584332710E-03       5    8    1         0.8775252555E-02      0.1645778278E-01
          0                 7           1             4    6     1      -0.1078872174E-04       5    8    1        -0.6214503073E-03      0.1068141179E-02

    ------------------------------------------------
       NWT REQUIRED            7 OUTER ITERATIONS 
       AND A TOTAL OF         13 INNER ITERATIONS.
    ------------------------------------------------

 NO OUTPUT CONTROL FOR STRESS PERIOD   21   TIME STEP    5
 
 SOLVING FOR HEAD 
                                                   Max.-Head-Change                         Max.-Flux-Residual
  Residual-Control   Outer-Iter.   Inner-Iter.     Column Row Layer    Maximum-Head-Change  Column Row Layer    Maximum-Flux-Residual          L2-NORM 
          0                 1           2             4    7     1      -0.4618253309E-01       4    7    1        -0.2428876977E+01      0.5322266198E+01
          0                 2           2             4   13     1      -0.9553124817E-02       4   13    1        -0.5615697510E+00      0.1014352923E+01
          0                 3           2             5    7     1      -0.3557053592E-02       4    7    1        -0.1913231022E+00      0.4757511823E+00
          0                 4           2             4    7     1      -0.2717913157E-02       4    7    1        -0.1504605507E+00      0.3456225535E+00
          0                 5           2             4    7     1      -0.1842621703E-02       4    7    1        -0.1020204412E+00      0.2332534304E+00
          0                 6           2             5    7     1       0.1731479033E-03       5    7    1         0.9477548789E-02      0.2146632441E-01
          0                 7           1             5    7     1      -0.1179074786E-04       5    7    1        -0.6674155734E-03      0.1482787369E-02

    ------------------------------------------------
       NWT REQUIRED            7 OUTER ITERATIONS 
       AND A TOTAL OF         13 INNER ITERATIONS.
    ------------------------------------------------

 NO OUTPUT CONTROL FOR STRESS PERIOD   21   TIME STEP    6
 
 SOLVING FOR HEAD 
                                                   Max.-Head-Change                         Max.-Flux-Residual
  Residual-Control   Outer-Iter.   Inner-Iter.     Column Row Layer    Maximum-Head-Change  Column Row Layer    Maximum-Flux-Residual          L2-NORM 
          0                 1           2             4    7     1      -0.4513067878E-01       4    7    1        -0.2373776976E+01      0.5225128545E+01
          0                 2           2             4   13     1      -0.9556951939E-02       4   13    1        -0.5617926097E+00      0.1018777038E+01
          0                 3           2             5    7     1      -0.3704495845E-02       4    7    1        -0.1996168866E+00      0.4942732763E+00
          0                 4           2             4    7     1      -0.2632008696E-02       4    7    1        -0.1457405712E+00      0.3331334512E+00
          0                 5           2             4    7     1      -0.1955930466E-02       4    7    1        -0.1082572946E+00      0.2492119012E+00
          0                 6           2             5    7     1       0.1852734385E-03       5    7    1         0.1014182483E-01      0.2296390782E-01
          0                 7           1             5    7     1      -0.1261645310E-04       5    7    1        -0.7141596661E-03      0.1586650048E-02

    ------------------------------------------------
       NWT REQUIRED            7 OUTER ITERATIONS 
       AND A TOTAL OF         13 INNER ITERATIONS.
    ------------------------------------------------

 NO OUTPUT CONTROL FOR STRESS PERIOD   21   TIME STEP    7
 
 SOLVING FOR HEAD 
                                                   Max.-Head-Change                         Max.-Flux-Residual
  Residual-Control   Outer-Iter.   Inner-Iter.     Column Row Layer    Maximum-Head-Change  Column Row Layer    Maximum-Flux-Residual          L2-NORM 
          0                 1           2             4    7     1      -0.4408536605E-01       4    7    1        -0.2319007001E+01      0.5130200558E+01
          0                 2           2             4   13     1      -0.9560517346E-02       4   13    1        -0.5620001739E+00      0.1024753988E+01
          0                 3           2             4    7     1      -0.3974526756E-02       4    7    1        -0.2076991754E+00      0.5127031557E+00
          0                 4           2             4    7     1      -0.2470207563E-02       5    8    1        -0.1298401432E+00      0.3172867322E+00
          0                 5           2             4    7     1      -0.2035417426E-02       4    7    1        -0.1062737288E+00      0.2601814438E+00
          0                 6           2             4    7     1       0.1979905898E-03       4    7    1         0.1062762728E-01      0.2602351282E-01
          0                 7           1             4    7     1      -0.1348242580E-04       4    7    1        -0.7439444075E-03      0.1821944975E-02

    ------------------------------------------------
       NWT REQUIRED            7 OUTER ITERATIONS 
       AND A TOTAL OF         13 INNER ITERATIONS.
    ------------------------------------------------

 NO OUTPUT CONTROL FOR STRESS PERIOD   21   TIME STEP    8
 
 SOLVING FOR HEAD 
                                                   Max.-Head-Change                         Max.-Flux-Residual
  Residual-Control   Outer-Iter.   Inner-Iter.     Column Row Layer    Maximum-Head-Change  Column Row Layer    Maximum-Flux-Residual          L2-NORM 
          0                 1           2             4    7     1      -0.4304672386E-01       4    7    1        -0.2264574070E+01      0.5037459297E+01
          0                 2           2             4   13     1      -0.9563873364E-02       4   13    1        -0.5621955001E+00      0.1032256185E+01
          0                 3           2             4    7     1      -0.4121711269E-02       4    7    1        -0.2153817495E+00      0.5309568408E+00
          0                 4           2             4    7     1      -0.2396905877E-02       5    8    1        -0.1260068725E+00      0.3079058485E+00
          0                 5           2             4    7     1      -0.2132946546E-02       4    7    1        -0.1113657022E+00      0.2726551686E+00
          0                 6           2             4    7     1       0.2074775110E-03       4    7    1         0.1113683533E-01      0.2727113714E-01
          0                 7           1             4    7     1      -0.1412844964E-04       4    7    1        -0.7795894007E-03      0.1909291009E-02

    ------------------------------------------------
       NWT REQUIRED            7 OUTER ITERATIONS 
       AND A TOTAL OF         13 INNER ITERATIONS.
    ------------------------------------------------

 NO OUTPUT CONTROL FOR STRESS PERIOD   21   TIME STEP    9
 
 SOLVING FOR HEAD 
                                                   Max.-Head-Change                         Max.-Flux-Residual
  Residual-Control   Outer-Iter.   Inner-Iter.     Column Row Layer    Maximum-Head-Change  Column Row Layer    Maximum-Flux-Residual          L2-NORM 
          0                 1           2             4    7     1      -0.4201492097E-01       4    7    1        -0.2210489321E+01      0.4946854736E+01
          0                 2           2             4   13     1      -0.9567016805E-02       4   13    1        -0.5623784208E+00      0.1041249566E+01
          0                 3           2             4    7     1      -0.4268047180E-02       4    7    1        -0.2230199008E+00      0.5491555570E+00
          0                 4           2             4    7     1      -0.2332762356E-02       5    8    1        -0.1226512959E+00      0.2996952905E+00
          0                 5           2             4    7     1      -0.2220564225E-02       4    7    1        -0.1159401718E+00      0.2838613320E+00
          0                 6           2             4    7     1       0.2160003199E-03       4    7    1         0.1159429195E-01      0.2839197071E-01
          0                 7           1             4    7     1      -0.1470882138E-04       4    7    1        -0.8116117656E-03      0.1987761524E-02

    ------------------------------------------------
       NWT REQUIRED            7 OUTER ITERATIONS 
       AND A TOTAL OF         13 INNER ITERATIONS.
    ------------------------------------------------

 NO OUTPUT CONTROL FOR STRESS PERIOD   21   TIME STEP   10
 
 SOLVING FOR HEAD 
                                                   Max.-Head-Change                         Max.-Flux-Residual
  Residual-Control   Outer-Iter.   Inner-Iter.     Column Row Layer    Maximum-Head-Change  Column Row Layer    Maximum-Flux-Residual          L2-NORM 
          0                 1           2             4    7     1      -0.4099005770E-01       4    7    1        -0.2156757982E+01      0.4858390656E+01
          0                 2           2             4   13     1      -0.9569979598E-02       4   13    1        -0.5625498707E+00      0.1051700910E+01
          0                 3           2             4    7     1      -0.4413627727E-02       4    7    1        -0.2306184984E+00      0.5673067181E+00
          0                 4           2             4    7     1      -0.2276160329E-02       5    8    1        -0.1196890476E+00      0.2924484027E+00
          0                 5           2             4    7     1      -0.2299929877E-02       4    7    1        -0.1200837801E+00      0.2940121614E+00
          0                 6           2             4    7     1       0.2237204319E-03       4    7    1         0.1200866153E-01      0.2940725450E-01
          0                 7           1             4    7     1      -0.1523453247E-04       4    7    1        -0.8406180109E-03      0.2058841627E-02

    ------------------------------------------------
       NWT REQUIRED            7 OUTER ITERATIONS 
       AND A TOTAL OF         13 INNER ITERATIONS.
    ------------------------------------------------

 NO OUTPUT CONTROL FOR STRESS PERIOD   21   TIME STEP   11
 
 SOLVING FOR HEAD 
                                                   Max.-Head-Change                         Max.-Flux-Residual
  Residual-Control   Outer-Iter.   Inner-Iter.     Column Row Layer    Maximum-Head-Change  Column Row Layer    Maximum-Flux-Residual          L2-NORM 
          0                 1           2             4    7     1      -0.3997220432E-01       4    7    1        -0.2103385517E+01      0.4772035798E+01
          0                 2           2             4   13     1      -0.9572718092E-02       4   13    1        -0.5627098671E+00      0.1063550749E+01
          0                 3           2             4    7     1      -0.4558337160E-02       4    7    1        -0.2381715167E+00      0.5853901768E+00
          0                 4           2             4    7     1      -0.2225809968E-02       5    8    1        -0.1170528304E+00      0.2860003272E+00
          0                 5           2             4    7     1      -0.2372560652E-02       4    7    1        -0.1238757413E+00      0.3033016835E+00
          0                 6           2             4    7     1       0.2307854239E-03       4    7    1         0.1238786565E-01      0.3033639057E-01
          0                 7           1             4    7     1      -0.1571563255E-04       4    7    1        -0.8671626429E-03      0.2123890846E-02

    ------------------------------------------------
       NWT REQUIRED            7 OUTER ITERATIONS 
       AND A TOTAL OF         13 INNER ITERATIONS.
    ------------------------------------------------

 NO OUTPUT CONTROL FOR STRESS PERIOD   21   TIME STEP   12
 
 SOLVING FOR HEAD 
                                                   Max.-Head-Change                         Max.-Flux-Residual
  Residual-Control   Outer-Iter.   Inner-Iter.     Column Row Layer    Maximum-Head-Change  Column Row Layer    Maximum-Flux-Residual          L2-NORM 
          0                 1           2             4    7     1      -0.2821194289E-01       4    7    1        -0.1489133902E+01      0.3688569954E+01
          0                 2           2             5    6     1      -0.1045336105E-01       5    8    1        -0.5637216967E+00      0.1648565905E+01
          0                 3           2             4    7     1      -0.8367086008E-02       4    7    1        -0.4370273048E+00      0.1065782287E+01
          0                 4           2             4    7     1      -0.1270864242E-02       5    8    1        -0.6718131891E-01      0.1639397415E+00
          0                 5           2             4    7     1      -0.3075833676E-02       4    7    1        -0.1605942948E+00      0.3932462726E+00
          0                 6           2             4    7     1       0.2991946907E-03       4    7    1         0.1605979408E-01      0.3933258675E-01
          0                 7           1             4    7     1      -0.2037405007E-04       4    7    1        -0.1124200702E-02      0.2753714130E-02

    ------------------------------------------------
       NWT REQUIRED            7 OUTER ITERATIONS 
       AND A TOTAL OF         13 INNER ITERATIONS.
    ------------------------------------------------

 NO OUTPUT CONTROL FOR STRESS PERIOD   21   TIME STEP   13
 
 SOLVING FOR HEAD 
                                                   Max.-Head-Change                         Max.-Flux-Residual
  Residual-Control   Outer-Iter.   Inner-Iter.     Column Row Layer    Maximum-Head-Change  Column Row Layer    Maximum-Flux-Residual          L2-NORM 
          0                 1           2             4    7     1      -0.2711439783E-01       4    7    1        -0.1431589480E+01      0.3620901203E+01
          0                 2           2             5    6     1      -0.1085255783E-01       5    8    1        -0.5850858208E+00      0.1691074494E+01
          0                 3           2             4    7     1      -0.8507424618E-02       4    7    1        -0.4443516921E+00      0.1083687125E+01
          0                 4           2             4    7     1      -0.1262449899E-02       5    8    1        -0.6673406754E-01      0.1628526802E+00
          0                 5           2             4    7     1      -0.3102799402E-02       4    7    1        -0.1620019723E+00      0.3966955536E+00
          0                 6           2             4    7     1       0.3018177199E-03       4    7    1         0.1620056486E-01      0.3967758308E-01
          0                 7           1             4    7     1      -0.2055266869E-04       4    7    1        -0.1134054791E-02      0.2777867459E-02

    ------------------------------------------------
       NWT REQUIRED            7 OUTER ITERATIONS 
       AND A TOTAL OF         13 INNER ITERATIONS.
    ------------------------------------------------

 NO OUTPUT CONTROL FOR STRESS PERIOD   21   TIME STEP   14
 
 SOLVING FOR HEAD 
                                                   Max.-Head-Change                         Max.-Flux-Residual
  Residual-Control   Outer-Iter.   Inner-Iter.     Column Row Layer    Maximum-Head-Change  Column Row Layer    Maximum-Flux-Residual          L2-NORM 
          0                 1           2             4    7     1      -0.2602403183E-01       4    7    1        -0.1374415227E+01      0.3556815948E+01
          0                 2           2             5    6     1      -0.1125268680E-01       5    8    1        -0.6064962935E+00      0.1734258347E+01
          0                 3           2             4    7     1      -0.8645624726E-02       4    7    1        -0.4515643568E+00      0.1101334428E+01
          0                 4           2             4    7     1      -0.1254578187E-02       5    8    1        -0.6631487424E-01      0.1618348238E+00
          0                 5           2             4    7     1      -0.3129400388E-02       4    7    1        -0.1633906033E+00      0.4000982205E+00
          0                 6           2             4    7     1       0.3044052693E-03       4    7    1         0.1633943095E-01      0.4001791709E-01
          0                 7           1             4    7     1      -0.2072887100E-04       4    7    1        -0.1143775529E-02      0.2801694517E-02

    ------------------------------------------------
       NWT REQUIRED            7 OUTER ITERATIONS 
       AND A TOTAL OF         13 INNER ITERATIONS.
    ------------------------------------------------

 NO OUTPUT CONTROL FOR STRESS PERIOD   21   TIME STEP   15
 
 SOLVING FOR HEAD 
                                                   Max.-Head-Change                         Max.-Flux-Residual
  Residual-Control   Outer-Iter.   Inner-Iter.     Column Row Layer    Maximum-Head-Change  Column Row Layer    Maximum-Flux-Residual          L2-NORM 
          0                 1           2             4    7     1      -0.2494101644E-01       4    7    1        -0.1317620827E+01      0.3496362252E+01
          0                 2           2             5    6     1      -0.1165389964E-01       5    8    1        -0.6279599752E+00      0.1778090953E+01
          0                 3           2             4    7     1      -0.8781707211E-02       4    7    1        -0.4586663978E+00      0.1118716034E+01
          0                 4           2             4    7     1      -0.1247192220E-02       5    8    1        -0.6592082744E-01      0.1608784906E+00
          0                 5           2             4    7     1      -0.3155596653E-02       4    7    1        -0.1647581007E+00      0.4034491535E+00
          0                 6           2             4    7     1       0.3069534506E-03       4    7    1         0.1647618362E-01      0.4035307690E-01
          0                 7           1             4    7     1      -0.2090239286E-04       4    7    1        -0.1153348341E-02      0.2825159031E-02

    ------------------------------------------------
       NWT REQUIRED            7 OUTER ITERATIONS 
       AND A TOTAL OF         13 INNER ITERATIONS.
    ------------------------------------------------

 NO OUTPUT CONTROL FOR STRESS PERIOD   21   TIME STEP   16
 
 SOLVING FOR HEAD 
                                                   Max.-Head-Change                         Max.-Flux-Residual
  Residual-Control   Outer-Iter.   Inner-Iter.     Column Row Layer    Maximum-Head-Change  Column Row Layer    Maximum-Flux-Residual          L2-NORM 
          0                 1           2             4    7     1      -0.2413683419E-01       4    7    1        -0.1275381569E+01      0.3458365755E+01
          0                 2           2             5    6     1      -0.1185795472E-01       5    8    1        -0.6388753171E+00      0.1801095601E+01
          0                 3           2             4    7     1      -0.8840615850E-02       4    7    1        -0.4617390947E+00      0.1126301225E+01
          0                 4           2             4    7     1      -0.1252012462E-02       5    8    1        -0.6616398737E-01      0.1614810553E+00
          0                 5           2             4    7     1      -0.3176727370E-02       4    7    1        -0.1658611178E+00      0.4061522483E+00
          0                 6           2             4    7     1       0.3090088925E-03       4    7    1         0.1658648779E-01      0.4062344046E-01
          0                 7           1             4    7     1      -0.2104236084E-04       4    7    1        -0.1161069744E-02      0.2844087449E-02

    ------------------------------------------------
       NWT REQUIRED            7 OUTER ITERATIONS 
       AND A TOTAL OF         13 INNER ITERATIONS.
    ------------------------------------------------

 NO OUTPUT CONTROL FOR STRESS PERIOD   21   TIME STEP   17
 
 SOLVING FOR HEAD 
                                                   Max.-Head-Change                         Max.-Flux-Residual
  Residual-Control   Outer-Iter.   Inner-Iter.     Column Row Layer    Maximum-Head-Change  Column Row Layer    Maximum-Flux-Residual          L2-NORM 
          0                 1           2             4    7     1      -0.2349907548E-01       4    7    1        -0.1241828799E+01      0.3433117956E+01
          0                 2           2             5    6     1      -0.1194886048E-01       5    8    1        -0.6437351222E+00      0.1811960065E+01
          0                 3           2             4    7     1      -0.8850706011E-02       4    7    1        -0.4622629153E+00      0.1127688628E+01
          0                 4           2             4    7     1      -0.1264865419E-02       5    8    1        -0.6682643438E-01      0.1631095412E+00
          0                 5           2             4    7     1      -0.3193703051E-02       4    7    1        -0.1667471946E+00      0.4083239602E+00
          0                 6           2             4    7     1       0.3106601627E-03       4    7    1         0.1667509754E-01      0.4084065588E-01
          0                 7           1             4    7     1      -0.2115480609E-04       4    7    1        -0.1167272505E-02      0.2859294908E-02

    ------------------------------------------------
       NWT REQUIRED            7 OUTER ITERATIONS 
       AND A TOTAL OF         13 INNER ITERATIONS.
    ------------------------------------------------

 NO OUTPUT CONTROL FOR STRESS PERIOD   21   TIME STEP   18
 
 SOLVING FOR HEAD 
                                                   Max.-Head-Change                         Max.-Flux-Residual
  Residual-Control   Outer-Iter.   Inner-Iter.     Column Row Layer    Maximum-Head-Change  Column Row Layer    Maximum-Flux-Residual          L2-NORM 
          0                 1           2             4    7     1      -0.2286873147E-01       4    7    1        -0.1208660754E+01      0.3409158995E+01
          0                 2           2             5    6     1      -0.1203880399E-01       5    8    1        -0.6485424220E+00      0.1822735975E+01
          0                 3           2             4    7     1      -0.8860808177E-02       4    7    1        -0.4627873355E+00      0.1129080235E+01
          0                 4           2             4    7     1      -0.1277721757E-02       5    8    1        -0.6748891010E-01      0.1647382753E+00
          0                 5           2             4    7     1      -0.3210623611E-02       4    7    1        -0.1676303926E+00      0.4104886442E+00
          0                 6           2             4    7     1       0.3123060711E-03       4    7    1         0.1676341936E-01      0.4105716842E-01
          0                 7           1             4    7     1      -0.2126688638E-04       4    7    1        -0.1173455122E-02      0.2874453693E-02

    ------------------------------------------------
       NWT REQUIRED            7 OUTER ITERATIONS 
       AND A TOTAL OF         13 INNER ITERATIONS.
    ------------------------------------------------

 NO OUTPUT CONTROL FOR STRESS PERIOD   21   TIME STEP   19
 
 SOLVING FOR HEAD 
                                                   Max.-Head-Change                         Max.-Flux-Residual
  Residual-Control   Outer-Iter.   Inner-Iter.     Column Row Layer    Maximum-Head-Change  Column Row Layer    Maximum-Flux-Residual          L2-NORM 
          0                 1           2             4    7     1      -0.2224604934E-01       4    7    1        -0.1175891690E+01      0.3386448051E+01
          0                 2           2             5    6     1      -0.1212793158E-01       5    8    1        -0.6533028710E+00      0.1833434994E+01
          0                 3           2             4    7     1      -0.8870862707E-02       4    7    1        -0.4633092559E+00      0.1130467688E+01
          0                 4           2             4    7     1      -0.1290619404E-02       5    8    1        -0.6815342579E-01      0.1663721569E+00
          0                 5           2             4    7     1      -0.3227540054E-02       4    7    1        -0.1685133747E+00      0.4126528155E+00
          0                 6           2             4    7     1       0.3139515792E-03       4    7    1         0.1685171962E-01      0.4127362958E-01
          0                 7           1             4    7     1      -0.2137893911E-04       4    7    1        -0.1179636217E-02      0.2889608147E-02

    ------------------------------------------------
       NWT REQUIRED            7 OUTER ITERATIONS 
       AND A TOTAL OF         13 INNER ITERATIONS.
    ------------------------------------------------

 NO OUTPUT CONTROL FOR STRESS PERIOD   21   TIME STEP   20
 
 SOLVING FOR HEAD 
                                                   Max.-Head-Change                         Max.-Flux-Residual
  Residual-Control   Outer-Iter.   Inner-Iter.     Column Row Layer    Maximum-Head-Change  Column Row Layer    Maximum-Flux-Residual          L2-NORM 
          0                 1           2             4    7     1      -0.2163084269E-01       4    7    1        -0.1143511823E+01      0.3364937406E+01
          0                 2           2             5    6     1      -0.1221624013E-01       5    8    1        -0.6580166776E+00      0.1844053885E+01
          0                 3           2             4    7     1      -0.8880977335E-02       4    7    1        -0.4638343005E+00      0.1131864647E+01
          0                 4           2             4    7     1      -0.1303501922E-02       5    8    1        -0.6881705049E-01      0.1680040663E+00
          0                 5           2             4    7     1      -0.3244430625E-02       4    7    1        -0.1693950051E+00      0.4148136916E+00
          0                 6           2             4    7     1       0.3155945706E-03       4    7    1         0.1693988471E-01      0.4148976120E-01
          0                 7           1             4    7     1      -0.2149082095E-04       4    7    1        -0.1185807856E-02      0.2904739679E-02

    ------------------------------------------------
       NWT REQUIRED            7 OUTER ITERATIONS 
       AND A TOTAL OF         13 INNER ITERATIONS.
    ------------------------------------------------

 NO OUTPUT CONTROL FOR STRESS PERIOD   21   TIME STEP   21
 
 SOLVING FOR HEAD 
                                                   Max.-Head-Change                         Max.-Flux-Residual
  Residual-Control   Outer-Iter.   Inner-Iter.     Column Row Layer    Maximum-Head-Change  Column Row Layer    Maximum-Flux-Residual          L2-NORM 
          0                 1           2             4    7     1      -0.2102308553E-01       4    7    1        -0.1111520284E+01      0.3344610895E+01
          0                 2           2             5    6     1      -0.1230376800E-01       5    8    1        -0.6626877623E+00      0.1854600040E+01
          0                 3           2             4    7     1      -0.8891112071E-02       4    7    1        -0.4643603868E+00      0.1133265653E+01
          0                 4           2             4    7     1      -0.1316382443E-02       5    8    1        -0.6948049083E-01      0.1696356611E+00
          0                 5           2             4    7     1      -0.3261184412E-02       4    7    1        -0.1702694933E+00      0.4169570857E+00
          0                 6           2             4    7     1       0.3172242566E-03       4    7    1         0.1702733555E-01      0.4170414420E-01
          0                 7           1             4    7     1      -0.2160179646E-04       4    7    1        -0.1191929503E-02      0.2919748723E-02

    ------------------------------------------------
       NWT REQUIRED            7 OUTER ITERATIONS 
       AND A TOTAL OF         13 INNER ITERATIONS.
    ------------------------------------------------

 NO OUTPUT CONTROL FOR STRESS PERIOD   21   TIME STEP   22
 
 SOLVING FOR HEAD 
                                                   Max.-Head-Change                         Max.-Flux-Residual
  Residual-Control   Outer-Iter.   Inner-Iter.     Column Row Layer    Maximum-Head-Change  Column Row Layer    Maximum-Flux-Residual          L2-NORM 
          0                 1           2             4    7     1      -0.2042289634E-01       4    7    1        -0.1079924077E+01      0.3325426126E+01
          0                 2           2             5    6     1      -0.1239054964E-01       5    8    1        -0.6673181450E+00      0.1865073880E+01
          0                 3           2             4    7     1      -0.8901300062E-02       4    7    1        -0.4648892535E+00      0.1134674584E+01
          0                 4           2             4    7     1      -0.1329211985E-02       5    8    1        -0.7014121568E-01      0.1712606314E+00
          0                 5           2             4    7     1      -0.3278034637E-02       4    7    1        -0.1711490160E+00      0.4191128198E+00
          0                 6           2             4    7     1       0.3188633234E-03       4    7    1         0.1711528984E-01      0.4191976148E-01
          0                 7           1             4    7     1      -0.2171341074E-04       4    7    1        -0.1198086388E-02      0.2934844317E-02

    ------------------------------------------------
       NWT REQUIRED            7 OUTER ITERATIONS 
       AND A TOTAL OF         13 INNER ITERATIONS.
    ------------------------------------------------

 NO OUTPUT CONTROL FOR STRESS PERIOD   21   TIME STEP   23
 
 SOLVING FOR HEAD 
                                                   Max.-Head-Change                         Max.-Flux-Residual
  Residual-Control   Outer-Iter.   Inner-Iter.     Column Row Layer    Maximum-Head-Change  Column Row Layer    Maximum-Flux-Residual          L2-NORM 
          0                 1           2             6    7     1      -0.2003640244E-01       6    7    1        -0.1061802297E+01      0.3307343790E+01
          0                 2           2             5    6     1      -0.1247665713E-01       5    8    1        -0.6719102779E+00      0.1875483206E+01
          0                 3           2             4    7     1      -0.8911442734E-02       4    7    1        -0.4654157547E+00      0.1136078821E+01
          0                 4           2             4    7     1      -0.1342091737E-02       5    8    1        -0.7080451857E-01      0.1728920629E+00
          0                 5           2             4    7     1      -0.3294888986E-02       4    7    1        -0.1720287534E+00      0.4212690866E+00
          0                 6           2             4    7     1       0.3205027912E-03       4    7    1         0.1720326558E-01      0.4213543201E-01
          0                 7           1             4    7     1      -0.2182505284E-04       4    7    1        -0.1204244792E-02      0.2949943653E-02

    ------------------------------------------------
       NWT REQUIRED            7 OUTER ITERATIONS 
       AND A TOTAL OF         13 INNER ITERATIONS.
    ------------------------------------------------

 NO OUTPUT CONTROL FOR STRESS PERIOD   21   TIME STEP   24
 
 SOLVING FOR HEAD 
                                                   Max.-Head-Change                         Max.-Flux-Residual
  Residual-Control   Outer-Iter.   Inner-Iter.     Column Row Layer    Maximum-Head-Change  Column Row Layer    Maximum-Flux-Residual          L2-NORM 
          0                 1           2             6    7     1      -0.2004885418E-01       6    7    1        -0.1062763183E+01      0.3290336080E+01
          0                 2           2             5    6     1      -0.1256210564E-01       5    8    1        -0.6764652268E+00      0.1885821958E+01
          0                 3           2             4    7     1      -0.8921588262E-02       4    7    1        -0.4659424079E+00      0.1137484008E+01
          0                 4           2             4    7     1      -0.1354989482E-02       5    8    1        -0.7146874079E-01      0.1745257962E+00
          0                 5           2             4    7     1      -0.3311622820E-02       4    7    1        -0.1729021979E+00      0.4234099430E+00
          0                 6           2             4    7     1       0.3221305366E-03       4    7    1         0.1729061207E-01      0.4234956154E-01
          0                 7           1             4    7     1      -0.2193589628E-04       4    7    1        -0.1210359130E-02      0.2964935181E-02

    ------------------------------------------------
       NWT REQUIRED            7 OUTER ITERATIONS 
       AND A TOTAL OF         13 INNER ITERATIONS.
    ------------------------------------------------

 NO OUTPUT CONTROL FOR STRESS PERIOD   21   TIME STEP   25
 
 SOLVING FOR HEAD 
                                                   Max.-Head-Change                         Max.-Flux-Residual
  Residual-Control   Outer-Iter.   Inner-Iter.     Column Row Layer    Maximum-Head-Change  Column Row Layer    Maximum-Flux-Residual          L2-NORM 
          0                 1           2             3    7     1      -0.2017789744E-01       6    7    1        -0.1063495851E+01      0.3274376709E+01
          0                 2           2             5    6     1      -0.1264685940E-01       5    8    1        -0.6809836373E+00      0.1896100733E+01
          0                 3           2             4    7     1      -0.8931800478E-02       4    7    1        -0.4664725557E+00      0.1138898279E+01
          0                 4           2             4    7     1      -0.1367844035E-02       5    8    1        -0.7213069385E-01      0.1761540454E+00
          0                 5           2             4    7     1      -0.3328479706E-02       4    7    1        -0.1737820670E+00      0.4255665381E+00
          0                 6           2             4    7     1       0.3237702510E-03       4    7    1         0.1737860099E-01      0.4256526554E-01
          0                 7           1             4    7     1      -0.2204755435E-04       4    7    1        -0.1216518416E-02      0.2980036857E-02

    ------------------------------------------------
       NWT REQUIRED            7 OUTER ITERATIONS 
       AND A TOTAL OF         13 INNER ITERATIONS.
    ------------------------------------------------

 NO OUTPUT CONTROL FOR STRESS PERIOD   21   TIME STEP   26
 
 SOLVING FOR HEAD 
                                                   Max.-Head-Change                         Max.-Flux-Residual
  Residual-Control   Outer-Iter.   Inner-Iter.     Column Row Layer    Maximum-Head-Change  Column Row Layer    Maximum-Flux-Residual          L2-NORM 
          0                 1           2             3    7     1      -0.2031144557E-01       6    7    1        -0.1063983486E+01      0.3259507357E+01
          0                 2           2             5    6     1      -0.1273101086E-01       5    8    1        -0.6854681249E+00      0.1906315765E+01
          0                 3           2             4    7     1      -0.8941995039E-02       4    7    1        -0.4670017897E+00      0.1140310528E+01
          0                 4           2             4    7     1      -0.1380718630E-02       5    8    1        -0.7279369388E-01      0.1777848446E+00
          0                 5           2             4    7     1      -0.3345234134E-02       4    7    1        -0.1746565863E+00      0.4277100293E+00
          0                 6           2             4    7     1       0.3253999994E-03       4    7    1         0.1746605493E-01      0.4277965825E-01
          0                 7           1             4    7     1      -0.2215853424E-04       4    7    1        -0.1222640275E-02      0.2995047191E-02

    ------------------------------------------------
       NWT REQUIRED            7 OUTER ITERATIONS 
       AND A TOTAL OF         13 INNER ITERATIONS.
    ------------------------------------------------

 NO OUTPUT CONTROL FOR STRESS PERIOD   21   TIME STEP   27
 
 SOLVING FOR HEAD 
                                                   Max.-Head-Change                         Max.-Flux-Residual
  Residual-Control   Outer-Iter.   Inner-Iter.     Column Row Layer    Maximum-Head-Change  Column Row Layer    Maximum-Flux-Residual          L2-NORM 
          0                 1           2             3    7     1      -0.2043934220E-01       6    7    1        -0.1064269876E+01      0.3245629116E+01
          0                 2           2             5    6     1      -0.1281458887E-01       5    8    1        -0.6899212184E+00      0.1916474006E+01
          0                 3           2             4    7     1      -0.8952210340E-02       4    7    1        -0.4675321207E+00      0.1141725751E+01
          0                 4           2             4    7     1      -0.1393609427E-02       5    8    1        -0.7345755146E-01      0.1794178447E+00
          0                 5           2             4    7     1      -0.3362023482E-02       4    7    1        -0.1755329284E+00      0.4298579846E+00
          0                 6           2             4    7     1       0.3270331447E-03       4    7    1         0.1755369116E-01      0.4299449742E-01
          0                 7           1             4    7     1      -0.2226974547E-04       4    7    1        -0.1228774907E-02      0.3010088158E-02

    ------------------------------------------------
       NWT REQUIRED            7 OUTER ITERATIONS 
       AND A TOTAL OF         13 INNER ITERATIONS.
    ------------------------------------------------

 NO OUTPUT CONTROL FOR STRESS PERIOD   21   TIME STEP   28
 
 SOLVING FOR HEAD 
                                                   Max.-Head-Change                         Max.-Flux-Residual
  Residual-Control   Outer-Iter.   Inner-Iter.     Column Row Layer    Maximum-Head-Change  Column Row Layer    Maximum-Flux-Residual          L2-NORM 
          0                 1           2             3    7     1      -0.2046866637E-01       6    7    1        -0.1064336879E+01      0.3043039107E+01
          0                 2           2             5    6     1      -0.2073440988E-01       5    8    1        -0.1144579134E+01      0.2919244767E+01
          0                 3           2             5    7     1      -0.1147258772E-01       4    8    1        -0.6226459644E+00      0.1515407183E+01
          0                 4           2             5    7     1      -0.1299238164E-02       5    7    1        -0.7070999538E-01      0.1671894736E+00
          0                 5           2             4    7     1      -0.3536919149E-02       5    7    1        -0.1852143300E+00      0.4534271569E+00
          0                 6           2             4    7     1       0.3440457234E-03       4    7    1         0.1871660558E-01      0.3442515400E-01
          0                 7           1             4    7     1      -0.2342824149E-04       4    7    1        -0.1327326533E-02      0.1770586214E-02

    ------------------------------------------------
       NWT REQUIRED            7 OUTER ITERATIONS 
       AND A TOTAL OF         13 INNER ITERATIONS.
    ------------------------------------------------

 NO OUTPUT CONTROL FOR STRESS PERIOD   21   TIME STEP   29
 
 SOLVING FOR HEAD 
                                                   Max.-Head-Change                         Max.-Flux-Residual
  Residual-Control   Outer-Iter.   Inner-Iter.     Column Row Layer    Maximum-Head-Change  Column Row Layer    Maximum-Flux-Residual          L2-NORM 
          0                 1           2             3    7     1      -0.2058534023E-01       6    7    1        -0.1064226274E+01      0.3056858344E+01
          0                 2           2             5    6     1      -0.2086469659E-01       5    8    1        -0.1151724324E+01      0.2936585468E+01
          0                 3           2             5    7     1      -0.1148399450E-01       4    8    1        -0.6232703102E+00      0.1516831741E+01
          0                 4           2             5    7     1      -0.1310844320E-02       5    7    1        -0.7133921949E-01      0.1687229394E+00
          0                 5           2             4    7     1      -0.3554853515E-02       5    7    1        -0.1861705083E+00      0.4557606476E+00
          0                 6           2             4    7     1       0.3457902475E-03       4    7    1         0.1881141592E-01      0.3460190369E-01
          0                 7           1             4    7     1      -0.2354703727E-04       4    7    1        -0.1334050601E-02      0.1779632596E-02

    ------------------------------------------------
       NWT REQUIRED            7 OUTER ITERATIONS 
       AND A TOTAL OF         13 INNER ITERATIONS.
    ------------------------------------------------

 NO OUTPUT CONTROL FOR STRESS PERIOD   21   TIME STEP   30



 STREAM LISTING     PERIOD     21   STEP       30

 LAYER ROW COL. STREAM  RCH.  FLOW INTO     FLOW TO   FLOW OUT OF   OVRLND.     DIRECT     STREAM       STREAM     STREAM     STREAM   STREAMBED  STREAMBED
                SEG.NO.  NO.  STRM. RCH.    AQUIFER    STRM. RCH.    RUNOFF     PRECIP       ET          HEAD       DEPTH      WIDTH   CONDCTNC.   GRADIENT

   1    1    1     1     1    2.7750E+01  2.5751E-01   2.7493E+01  0.000E+00  0.000E+00  0.000E+00  1.09427E+03  1.218E+00  1.357E+01  6.105E-02  1.406E+00
   1    2    2     1     2    2.7493E+01  3.9833E-01   2.7095E+01  0.000E+00  0.000E+00  0.000E+00  1.08927E+03  1.213E+00  1.351E+01  9.454E-02  1.404E+00
   1    3    3     1     3    2.7095E+01  3.3924E-01   2.6755E+01  0.000E+00  0.000E+00  0.000E+00  1.08363E+03  1.208E+00  1.344E+01  8.062E-02  1.403E+00
   1    3    4     1     4    2.6755E+01  3.1201E-01   2.6443E+01  0.000E+00  0.000E+00  0.000E+00  1.07861E+03  1.203E+00  1.337E+01  7.423E-02  1.401E+00
   1    4    5     2     1    2.4443E+01  3.2655E-01   2.4117E+01  0.000E+00  0.000E+00  0.000E+00  1.07312E+03  1.187E+00  1.200E+01  7.800E-02  1.396E+00
   1    5    6     2     2    2.4117E+01  2.5069E-01   2.3866E+01  0.000E+00  0.000E+00  0.000E+00  1.06769E+03  1.178E+00  1.200E+01  6.000E-02  1.393E+00
   1    6    6     2     3    2.3866E+01  2.5024E-01   2.3616E+01  0.000E+00  0.000E+00  0.000E+00  1.06296E+03  1.171E+00  1.200E+01  6.000E-02  1.390E+00
   1    7    6     2     4    2.3616E+01  2.4980E-01   2.3366E+01  0.000E+00  0.000E+00  0.000E+00  1.05824E+03  1.163E+00  1.200E+01  6.000E-02  1.388E+00
   1    8    6     2     5    2.3366E+01  2.4935E-01   2.3117E+01  0.000E+00  0.000E+00  0.000E+00  1.05351E+03  1.156E+00  1.200E+01  6.000E-02  1.385E+00
   1    3    5     3     1    2.0000E+00  2.8252E-01   1.7175E+00  0.000E+00  0.000E+00  0.000E+00  1.07555E+03  1.909E+00  9.636E+00  7.227E-02  1.955E+00
   1    3    6     3     2    1.7175E+00  2.4905E-01   1.4684E+00  0.000E+00  0.000E+00  0.000E+00  1.07264E+03  1.727E+00  8.909E+00  6.682E-02  1.864E+00
   1    3    7     3     3    1.4684E+00  1.9718E-01   1.2712E+00  0.000E+00  0.000E+00  0.000E+00  1.06987E+03  1.555E+00  8.218E+00  5.547E-02  1.777E+00
   1    4    8     3     4    1.2712E+00  2.2567E-01   1.0456E+00  0.000E+00  0.000E+00  0.000E+00  1.06682E+03  1.364E+00  7.455E+00  6.709E-02  1.682E+00
   1    5    8     3     5    1.0456E+00  1.5790E-01   8.8768E-01  0.000E+00  0.000E+00  0.000E+00  1.06362E+03  1.164E+00  6.655E+00  4.991E-02  1.582E+00
   1    6    8     3     6    8.8768E-01  5.5980E-02   8.3170E-01  0.000E+00  0.000E+00  0.000E+00  1.06158E+03  1.036E+00  6.145E+00  1.844E-02  1.518E+00
   1    5   10     4     1    1.0000E+01  9.0919E-02   9.9091E+00  0.000E+00  0.000E+00  0.000E+00  1.07836E+03  6.368E-01  1.000E+01  2.500E-02  1.212E+00
   1    5    9     4     2    9.9091E+00  1.8158E-01   9.7275E+00  0.000E+00  0.000E+00  0.000E+00  1.07154E+03  6.315E-01  1.000E+01  5.000E-02  1.211E+00
   1    6    8     4     3    9.7275E+00  1.2689E-01   9.6006E+00  0.000E+00  0.000E+00  0.000E+00  1.06381E+03  6.256E-01  1.000E+01  3.500E-02  1.209E+00
   1    6    8     5     1    1.0432E+01  2.2686E-01   1.0205E+01  0.000E+00  0.000E+00  0.000E+00  1.05868E+03  6.790E-01  1.542E+01  6.166E-02  1.226E+00
   1    7    7     5     2    1.0205E+01  2.7894E-01   9.9265E+00  0.000E+00  0.000E+00  0.000E+00  1.05417E+03  6.732E-01  1.519E+01  7.594E-02  1.224E+00
   1    8    7     5     3    9.9265E+00  1.9221E-01   9.7343E+00  0.000E+00  0.000E+00  0.000E+00  1.04992E+03  6.676E-01  1.497E+01  5.241E-02  1.223E+00
   1    8    6     5     4    9.7343E+00  1.3577E-01   9.5985E+00  0.000E+00  0.000E+00  0.000E+00  1.04691E+03  6.637E-01  1.482E+01  3.706E-02  1.221E+00
   1    9    6     6     1    9.5985E+00  2.2097E-01   9.3776E+00  0.000E+00  0.000E+00  0.000E+00  1.04341E+03  6.828E-01  1.200E+01  6.000E-02  1.228E+00
   1   10    7     6     2    9.3776E+00  2.2039E-01   9.1572E+00  0.000E+00  0.000E+00  0.000E+00  1.03885E+03  6.732E-01  1.200E+01  6.000E-02  1.224E+00
   1   11    7     6     3    9.1572E+00  2.1981E-01   8.9374E+00  0.000E+00  0.000E+00  0.000E+00  1.03430E+03  6.636E-01  1.200E+01  6.000E-02  1.221E+00
   1   12    7     6     4    8.9374E+00  2.1923E-01   8.7181E+00  0.000E+00  0.000E+00  0.000E+00  1.02974E+03  6.539E-01  1.200E+01  6.000E-02  1.218E+00
   1   13    7     6     5    8.7181E+00 -1.2390E-01   8.8420E+00  0.000E+00  0.000E+00  0.000E+00  1.02656E+03  6.517E-01  1.200E+01  2.400E-01 -1.721E-01
   1   14    9     7     1    1.5000E+02  1.3362E+00   1.4866E+02  0.000E+00  0.000E+00  0.000E+00  1.03987E+03  2.288E+00  5.529E+01  5.593E-01  7.963E-01
   1   13    8     7     2    1.4866E+02  1.8255E+00   1.4684E+02  0.000E+00  0.000E+00  0.000E+00  1.03478E+03  2.279E+00  5.526E+01  6.148E-01  9.898E-01
   1   13    7     7     3    1.4684E+02  1.4592E+00   1.4538E+02  0.000E+00  0.000E+00  0.000E+00  1.02969E+03  2.271E+00  5.522E+01  5.585E-01  8.709E-01
   1   13    6     8     1    1.5422E+02  8.1411E-01   1.5341E+02  0.000E+00  0.000E+00  0.000E+00  1.02472E+03  2.843E+00  4.123E+01  4.202E-01  6.459E-01
   1   13    5     8     2    1.5341E+02  9.0506E-02   1.5332E+02  0.000E+00  0.000E+00  0.000E+00  1.01847E+03  2.840E+00  4.119E+01  4.197E-01  7.188E-02
   1   13    4     8     3    1.5332E+02 -2.6980E+00   1.5601E+02  0.000E+00  0.000E+00  0.000E+00  1.01222E+03  2.849E+00  4.132E+01  4.210E+00 -2.136E-01
   1   13    3     8     4    1.5601E+02 -3.7671E+00   1.5978E+02  0.000E+00  0.000E+00  0.000E+00  1.00600E+03  2.872E+00  4.164E+01  4.243E+00 -2.959E-01
   1   13    2     8     5    1.5978E+02 -2.6152E+00   1.6240E+02  0.000E+00  0.000E+00  0.000E+00  9.99768E+02  2.893E+00  4.195E+01  4.275E+00 -2.039E-01
   1   13    1     8     6    1.6240E+02 -2.0002E+00   1.6440E+02  0.000E+00  0.000E+00  0.000E+00  9.94784E+02  2.909E+00  4.218E+01  2.579E+00 -2.586E-01
   1    8    6     9     1    2.3117E+01  0.0000E+00   2.3117E+01  0.000E+00  0.000E+00  0.000E+00  1.08250E+03  3.747E+00  4.000E+00  0.000E+00  2.249E+00
   1    8    5     9     2    2.3117E+01  0.0000E+00   2.3117E+01  0.000E+00  0.000E+00  0.000E+00  1.08200E+03  3.747E+00  4.000E+00  0.000E+00  2.249E+00





UNSATURATED ZONE PACKAGE VOLUMETRIC BUDGET FOR  TIME STEP    30 STRESS PERIOD   21
  ------------------------------------------------------------------------------



     CUMULATIVE VOLUMES      L**3       RATES FOR THIS TIME STEP      L**3/T
     ------------------                 ------------------------

           IN:                                      IN:
           ---                                      ---
        INFILTRATION =  1003889481.7019          INFILTRATION =          52.9928

          OUT:                                     OUT:
          ----                                     ----
              UZF ET =   944462319.4321                UZF ET =          52.8575
        UZF RECHARGE =      654072.9065          UZF RECHARGE =       0.0000E+00

            IN - OUT =    58773089.3633              IN - OUT =           0.1352

          STORAGE:                                 STORAGE:
          --------                                 --------
      STORAGE CHANGE =    58773676.2081        STORAGE CHANGE =           0.1352

 PERCENT DISCREPANCY IS DIFFERENCE BETWEEN IN-OUT MINUS CHANGE IN STORAGE
 DIVIDED BY THE AVERAGE OF IN AND OUT TIMES 100

 PERCENT DISCREPANCY =          -0.00     PERCENT DISCREPANCY =           0.00






1
  VOLUMETRIC BUDGET FOR ENTIRE MODEL AT END OF TIME STEP   30, STRESS PERIOD  21
  ------------------------------------------------------------------------------

     CUMULATIVE VOLUMES      L**3       RATES FOR THIS TIME STEP      L**3/T
     ------------------                 ------------------------

           IN:                                      IN:
           ---                                      ---
               AG WELLS  =   176029504.0000                 AG WELLS  =          25.4681
      DIVERSION SEGMENTS =   595940544.0000        DIVERSION SEGMENTS =          23.1167
           GW IRRIGATION =           0.0000             GW IRRIGATION =           0.0000
           SW IRRIGATION =           0.0000             SW IRRIGATION =           0.0000
        SYSTEM LOSSES GW =           0.0000          SYSTEM LOSSES GW =           0.0000
        SYSTEM LOSSES SW =           0.0000          SYSTEM LOSSES SW =           0.0000

                TOTAL IN =   771970048.0000                  TOTAL IN =          48.5848

          OUT:                                     OUT:
          ----                                     ----
               AG WELLS  =           0.0000                 AG WELLS  =           0.0000
      DIVERSION SEGMENTS =           0.0000        DIVERSION SEGMENTS =           0.0000
           GW IRRIGATION =   176029504.0000             GW IRRIGATION =          25.4681
           SW IRRIGATION =   595953472.0000             SW IRRIGATION =          23.1172
        SYSTEM LOSSES GW =           0.0000          SYSTEM LOSSES GW =           0.0000
        SYSTEM LOSSES SW =           0.0000          SYSTEM LOSSES SW =           0.0000

               TOTAL OUT =   771982976.0000                 TOTAL OUT =          48.5853

                IN - OUT =      -12928.0000                  IN - OUT =      -4.6158E-04

     PERCENT DISCREPANCY =          -0.00         PERCENT DISCREPANCY =          -0.00



1
  VOLUMETRIC BUDGET FOR ENTIRE MODEL AT END OF TIME STEP   30, STRESS PERIOD  21
  ------------------------------------------------------------------------------

     CUMULATIVE VOLUMES      L**3       RATES FOR THIS TIME STEP      L**3/T
     ------------------                 ------------------------

           IN:                                      IN:
           ---                                      ---
             STORAGE     =   227389344.0000               STORAGE     =          25.5765
       CONSTANT HEAD     =           0.0000         CONSTANT HEAD     =           0.0000
     HEAD DEP BOUNDS     =    15056220.0000       HEAD DEP BOUNDS     =           0.2858
      STREAM LEAKAGE     =   631088704.0000        STREAM LEAKAGE     =          11.4411
        UZF RECHARGE     =      654073.0000          UZF RECHARGE     =           0.0000
               GW ET     =           0.0000                 GW ET     =           0.0000
     SURFACE LEAKAGE     =           0.0000       SURFACE LEAKAGE     =           0.0000
           AG WELLS      =           0.0000             AG WELLS      =           0.0000

                TOTAL IN =   874188352.0000                  TOTAL IN =          37.3033

          OUT:                                     OUT:
          ----                                     ----
             STORAGE     =   106982400.0000               STORAGE     =           0.3434
       CONSTANT HEAD     =           0.0000         CONSTANT HEAD     =           0.0000
     HEAD DEP BOUNDS     =    15330601.0000       HEAD DEP BOUNDS     =           0.2873
      STREAM LEAKAGE     =   573619072.0000        STREAM LEAKAGE     =          11.2045
        UZF RECHARGE     =           0.0000          UZF RECHARGE     =           0.0000
               GW ET     =     2231806.7500                 GW ET     =           0.0000
     SURFACE LEAKAGE     =           0.0000       SURFACE LEAKAGE     =           0.0000
           AG WELLS      =   176029504.0000             AG WELLS      =          25.4681

               TOTAL OUT =   874193408.0000                 TOTAL OUT =          37.3032

                IN - OUT =       -5056.0000                  IN - OUT =       8.7738E-05

     PERCENT DISCREPANCY =          -0.00         PERCENT DISCREPANCY =           0.00






         TIME SUMMARY AT END OF TIME STEP   30 IN STRESS PERIOD   21
                    SECONDS     MINUTES      HOURS       DAYS        YEARS
                    -----------------------------------------------------------
   TIME STEP LENGTH  87667.      1461.1      24.352      1.0147     2.77799E-03
 STRESS PERIOD TIME 2.63000E+06  43833.      730.56      30.440     8.33397E-02
         TOTAL TIME 5.26866E+07 8.78110E+05  14635.      609.80      1.6695    
1
1
                            STRESS PERIOD NO.   22, LENGTH =   2630000.    
                            -----------------------------------------------

                              NUMBER OF TIME STEPS =    30

                               MULTIPLIER FOR DELT =     1.000

                            INITIAL TIME STEP SIZE =   87666.66    

 REUSING NON-PARAMETER GHB CELLS FROM LAST STRESS PERIOD

      2 GHB CELLS

 REUSING STREAM SEGMENT DATA FROM LAST STRESS PERIOD



            AREAL INFILTRATION RATE
 READING ON UNIT   19 WITH FORMAT: (10F4.0)            

            1           2           3           4           5           6           7           8           9          10
 ........................................................................................................................
   1   1.2000E-09   0.000       0.000       0.000       0.000       0.000       0.000       0.000       0.000       0.000    
   2   2.1000E-09  2.0000E-09  8.0000E-10  8.5000E-09   0.000       0.000       0.000       0.000       0.000       0.000    
   3   5.0000E-10  1.1000E-09  8.8000E-09  5.5000E-09   0.000       0.000       0.000       0.000       0.000       0.000    
   4   8.5000E-09  1.1000E-09  1.1000E-09  1.1000E-09  2.0000E-09   0.000       0.000       0.000       0.000       0.000    
   5   8.5000E-09  1.1000E-09  1.1000E-09  1.1000E-09  1.1000E-09   0.000       0.000       0.000       0.000       0.000    
   6   8.5000E-09  5.2000E-09  2.1000E-09  1.1000E-09  1.5000E-09   0.000       0.000       0.000       0.000       0.000    
   7   8.5000E-09  5.2000E-09  2.1000E-09  1.2000E-09  2.0000E-09   0.000       0.000       0.000       0.000       0.000    
   8   5.0000E-10  5.2000E-09  2.1000E-09  1.2000E-09  5.0000E-09   0.000       0.000       0.000       0.000       0.000    
   9   5.0000E-10  5.2000E-09  2.1000E-09  1.2000E-09  5.0000E-09   0.000       0.000       0.000       0.000       0.000    
  10   5.0000E-10  5.2000E-09  2.1000E-09  1.2000E-09  5.8000E-09   0.000       0.000       0.000       0.000       0.000    
  11   1.0000E-10  1.1000E-09  1.1000E-09  1.2000E-09  5.0000E-09   0.000       0.000       0.000       0.000       0.000    
  12   1.1000E-09  1.1000E-09  1.1000E-09  1.1000E-09  2.0000E-09   0.000       0.000       0.000       0.000       0.000    
  13   1.1000E-09  2.2000E-09  2.2000E-09  2.1000E-09  1.0000E-09   0.000       0.000       0.000       0.000       0.000    
  14   2.0000E-10  5.5000E-09  5.5000E-09  5.2000E-09  1.0000E-09   0.000       0.000       0.000       0.000       0.000    
  15    0.000      8.8000E-09  8.8000E-09   0.000       0.000       0.000       0.000       0.000       0.000       0.000    

                  ET RATE =  7.500000E-08

 USING ET EXTINCTION DEPTH FROM PREVIOUS STRESS PERIOD. CURRENT PERIOD IS:      22

 USING EXTINCTION WATER CONTENT FROM PREVIOUS STRESS PERIOD. CURRENT PERIOD IS:      22

 USING AIR ENTRY PRESSURE FROM PREVIOUS STRESS PERIOD. CURRENT PERIOD IS:      22

 USING ROOT PRESSURE HEAD FROM PREVIOUS STRESS PERIOD. CURRENT PERIOD IS:      22

 USING ROOT ACTIVITY FROM PREVIOUS STRESS PERIOD. CURRENT PERIOD IS:      22

 PROCESSING AG STRESS PERIOD DATA

 READING AG STRESS PERIOD DATA

 READING IRRIGATION SEGMENT

 READING IRRIGATION WELL

 READING SUPPLEMENTAL WELL

 END PROCESSING AG STRESS PERIOD DATA OPTIONS
 
 SOLVING FOR HEAD 
                                                   Max.-Head-Change                         Max.-Flux-Residual
  Residual-Control   Outer-Iter.   Inner-Iter.     Column Row Layer    Maximum-Head-Change  Column Row Layer    Maximum-Flux-Residual          L2-NORM 
          0                 1           2             5    8     1       0.4712187595E-01       5    8    1         0.2561854631E+01      0.6333399215E+01
          0                 2           2             5    8     1      -0.4583717058E-02       5    8    1        -0.2561830654E+00      0.6870980889E+00
          0                 3           2             4   13     1      -0.1683805858E-02       4   13    1        -0.9902760484E-01      0.1928119013E+00
          0                 4           1             7   13     1       0.6248048111E-04       7   13    1         0.3564248870E-02      0.7173381110E-02

    ------------------------------------------------
       NWT REQUIRED            4 OUTER ITERATIONS 
       AND A TOTAL OF          7 INNER ITERATIONS.
    ------------------------------------------------

 NO OUTPUT CONTROL FOR STRESS PERIOD   22   TIME STEP    1
 
 SOLVING FOR HEAD 
                                                   Max.-Head-Change                         Max.-Flux-Residual
  Residual-Control   Outer-Iter.   Inner-Iter.     Column Row Layer    Maximum-Head-Change  Column Row Layer    Maximum-Flux-Residual          L2-NORM 
          0                 1           2             5    6     1       0.4513203209E-01       5    8    1         0.2448759182E+01      0.6125017324E+01
          0                 2           2             5    6     1      -0.4390083275E-02       5    8    1        -0.2448736989E+00      0.6666612833E+00
          0                 3           2             4   13     1      -0.1688368879E-02       4   13    1        -0.9927656748E-01      0.1840199614E+00
          0                 4           1             4   13     1       0.5521045125E-04       4   13    1         0.3338494474E-02      0.6055119240E-02

    ------------------------------------------------
       NWT REQUIRED            4 OUTER ITERATIONS 
       AND A TOTAL OF          7 INNER ITERATIONS.
    ------------------------------------------------

 NO OUTPUT CONTROL FOR STRESS PERIOD   22   TIME STEP    2
 
 SOLVING FOR HEAD 
                                                   Max.-Head-Change                         Max.-Flux-Residual
  Residual-Control   Outer-Iter.   Inner-Iter.     Column Row Layer    Maximum-Head-Change  Column Row Layer    Maximum-Flux-Residual          L2-NORM 
          0                 1           2             5    6     1       0.4331990552E-01       5    6    1         0.2345614880E+01      0.5930885460E+01
          0                 2           2             5    6     1      -0.4213815249E-02       5    6    1        -0.2345593930E+00      0.6485573220E+00
          0                 3           2             4   13     1      -0.1693185476E-02       4   13    1        -0.9955981887E-01      0.1841947562E+00
          0                 4           1             4   13     1       0.5668084640E-04       4   13    1         0.3427402697E-02      0.6189757069E-02

    ------------------------------------------------
       NWT REQUIRED            4 OUTER ITERATIONS 
       AND A TOTAL OF          7 INNER ITERATIONS.
    ------------------------------------------------

 NO OUTPUT CONTROL FOR STRESS PERIOD   22   TIME STEP    3
 
 SOLVING FOR HEAD 
                                                   Max.-Head-Change                         Max.-Flux-Residual
  Residual-Control   Outer-Iter.   Inner-Iter.     Column Row Layer    Maximum-Head-Change  Column Row Layer    Maximum-Flux-Residual          L2-NORM 
          0                 1           2             5    6     1       0.4161195600E-01       5    6    1         0.2251443001E+01      0.5747483123E+01
          0                 2           2             5    6     1      -0.4047680607E-02       5    6    1        -0.2251423617E+00      0.6315255863E+00
          0                 3           2             4   13     1      -0.1701230060E-02       4   13    1        -0.1000327515E+00      0.1847303373E+00
          0                 4           1             4   13     1       0.5930731500E-04       4   13    1         0.3586173524E-02      0.6450596667E-02

    ------------------------------------------------
       NWT REQUIRED            4 OUTER ITERATIONS 
       AND A TOTAL OF          7 INNER ITERATIONS.
    ------------------------------------------------

 NO OUTPUT CONTROL FOR STRESS PERIOD   22   TIME STEP    4
 
 SOLVING FOR HEAD 
                                                   Max.-Head-Change                         Max.-Flux-Residual
  Residual-Control   Outer-Iter.   Inner-Iter.     Column Row Layer    Maximum-Head-Change  Column Row Layer    Maximum-Flux-Residual          L2-NORM 
          0                 1           2             5    6     1       0.4000060384E-01       5    6    1         0.2162656073E+01      0.5574017059E+01
          0                 2           2             5    6     1      -0.3890942065E-02       5    6    1        -0.2162638125E+00      0.6154847616E+00
          0                 3           2             4   13     1      -0.1709286571E-02       4   13    1        -0.1005063570E+00      0.1852933520E+00
          0                 4           1             4   13     1       0.6186879902E-04       4   13    1         0.3741025538E-02      0.6705280581E-02

    ------------------------------------------------
       NWT REQUIRED            4 OUTER ITERATIONS 
       AND A TOTAL OF          7 INNER ITERATIONS.
    ------------------------------------------------

 NO OUTPUT CONTROL FOR STRESS PERIOD   22   TIME STEP    5
 
 SOLVING FOR HEAD 
                                                   Max.-Head-Change                         Max.-Flux-Residual
  Residual-Control   Outer-Iter.   Inner-Iter.     Column Row Layer    Maximum-Head-Change  Column Row Layer    Maximum-Flux-Residual          L2-NORM 
          0                 1           2             5    6     1       0.3848004031E-01       5    6    1         0.2078927162E+01      0.5409793731E+01
          0                 2           2             5    6     1      -0.3743034613E-02       5    6    1        -0.2078910534E+00      0.6005587483E+00
          0                 3           2             4   13     1      -0.1705152393E-02       4   13    1        -0.1002633871E+00      0.1846193042E+00
          0                 4           1             4   13     1       0.6125127223E-04       4   13    1         0.3703694390E-02      0.6629256554E-02

    ------------------------------------------------
       NWT REQUIRED            4 OUTER ITERATIONS 
       AND A TOTAL OF          7 INNER ITERATIONS.
    ------------------------------------------------

 NO OUTPUT CONTROL FOR STRESS PERIOD   22   TIME STEP    6
 
 SOLVING FOR HEAD 
                                                   Max.-Head-Change                         Max.-Flux-Residual
  Residual-Control   Outer-Iter.   Inner-Iter.     Column Row Layer    Maximum-Head-Change  Column Row Layer    Maximum-Flux-Residual          L2-NORM 
          0                 1           2             5    6     1       0.3704402366E-01       5    6    1         0.1999905546E+01      0.5254114239E+01
          0                 2           2             5    6     1      -0.3603351111E-02       5    6    1        -0.1999890133E+00      0.5864878282E+00
          0                 3           2             4   13     1      -0.1701057591E-02       4   13    1        -0.1000227238E+00      0.1839675138E+00
          0                 4           1             4   13     1       0.6057915363E-04       4   13    1         0.3663076145E-02      0.6547901865E-02

    ------------------------------------------------
       NWT REQUIRED            4 OUTER ITERATIONS 
       AND A TOTAL OF          7 INNER ITERATIONS.
    ------------------------------------------------

 NO OUTPUT CONTROL FOR STRESS PERIOD   22   TIME STEP    7
 
 SOLVING FOR HEAD 
                                                   Max.-Head-Change                         Max.-Flux-Residual
  Residual-Control   Outer-Iter.   Inner-Iter.     Column Row Layer    Maximum-Head-Change  Column Row Layer    Maximum-Flux-Residual          L2-NORM 
          0                 1           2             5    7     1       0.3623410194E-01       5    6    1         0.1925267597E+01      0.5106383097E+01
          0                 2           2             5    7     1      -0.3524582018E-02       5    6    1        -0.1925253300E+00      0.5729775365E+00
          0                 3           2             4   13     1      -0.1710711165E-02       4   13    1        -0.1005901707E+00      0.1847557046E+00
          0                 4           1             4   13     1       0.6331454892E-04       4   13    1         0.3828432447E-02      0.6826567384E-02

    ------------------------------------------------
       NWT REQUIRED            4 OUTER ITERATIONS 
       AND A TOTAL OF          7 INNER ITERATIONS.
    ------------------------------------------------

 NO OUTPUT CONTROL FOR STRESS PERIOD   22   TIME STEP    8
 
 SOLVING FOR HEAD 
                                                   Max.-Head-Change                         Max.-Flux-Residual
  Residual-Control   Outer-Iter.   Inner-Iter.     Column Row Layer    Maximum-Head-Change  Column Row Layer    Maximum-Flux-Residual          L2-NORM 
          0                 1           2             5    7     1       0.3547343636E-01       5    7    1         0.1883153999E+01      0.4966041060E+01
          0                 2           2             5    7     1      -0.3450591987E-02       5    7    1        -0.1883148863E+00      0.5599414036E+00
          0                 3           2             4   13     1      -0.1716022236E-02       4   13    1        -0.1009026695E+00      0.1851039298E+00
          0                 4           1             4   13     1       0.6247233486E-04       4   13    1         0.3777539829E-02      0.6726863749E-02

    ------------------------------------------------
       NWT REQUIRED            4 OUTER ITERATIONS 
       AND A TOTAL OF          7 INNER ITERATIONS.
    ------------------------------------------------

 NO OUTPUT CONTROL FOR STRESS PERIOD   22   TIME STEP    9
 
 SOLVING FOR HEAD 
                                                   Max.-Head-Change                         Max.-Flux-Residual
  Residual-Control   Outer-Iter.   Inner-Iter.     Column Row Layer    Maximum-Head-Change  Column Row Layer    Maximum-Flux-Residual          L2-NORM 
          0                 1           2             5    7     1       0.3472835580E-01       5    7    1         0.1843631820E+01      0.4832584712E+01
          0                 2           2             5    7     1      -0.3378117716E-02       5    7    1        -0.1843627869E+00      0.5481337522E+00
          0                 3           2             4   13     1      -0.1700086393E-02       4   13    1        -0.9996611387E-01      0.1832647154E+00
          0                 4           1             4   13     1       0.5749972261E-04       4   13    1         0.3476955777E-02      0.6194129097E-02

    ------------------------------------------------
       NWT REQUIRED            4 OUTER ITERATIONS 
       AND A TOTAL OF          7 INNER ITERATIONS.
    ------------------------------------------------

 NO OUTPUT CONTROL FOR STRESS PERIOD   22   TIME STEP   10
 
 SOLVING FOR HEAD 
                                                   Max.-Head-Change                         Max.-Flux-Residual
  Residual-Control   Outer-Iter.   Inner-Iter.     Column Row Layer    Maximum-Head-Change  Column Row Layer    Maximum-Flux-Residual          L2-NORM 
          0                 1           2             4    7     1       0.3423765832E-01       5    7    1         0.1804901230E+01      0.4705527416E+01
          0                 2           2             4    7     1      -0.3330390727E-02       5    7    1        -0.1804898313E+00      0.5367342181E+00
          0                 3           2             4   13     1      -0.1706559482E-02       4   13    1        -0.1003465905E+00      0.1837664242E+00
          0                 4           1             4   13     1       0.5939438897E-04       4   13    1         0.3591498192E-02      0.6385076331E-02

    ------------------------------------------------
       NWT REQUIRED            4 OUTER ITERATIONS 
       AND A TOTAL OF          7 INNER ITERATIONS.
    ------------------------------------------------

 NO OUTPUT CONTROL FOR STRESS PERIOD   22   TIME STEP   11
 
 SOLVING FOR HEAD 
                                                   Max.-Head-Change                         Max.-Flux-Residual
  Residual-Control   Outer-Iter.   Inner-Iter.     Column Row Layer    Maximum-Head-Change  Column Row Layer    Maximum-Flux-Residual          L2-NORM 
          0                 1           2             4    7     1       0.3396393955E-01       4    7    1         0.1778951676E+01      0.4584454445E+01
          0                 2           2             4    7     1      -0.3303766962E-02       4    7    1        -0.1778953102E+00      0.5260573511E+00
          0                 3           2             4   13     1      -0.1701588144E-02       4   13    1        -0.1000544195E+00      0.1830904170E+00
          0                 4           1             4   13     1       0.5778263193E-04       4   13    1         0.3494049865E-02      0.6208451586E-02

    ------------------------------------------------
       NWT REQUIRED            4 OUTER ITERATIONS 
       AND A TOTAL OF          7 INNER ITERATIONS.
    ------------------------------------------------

 NO OUTPUT CONTROL FOR STRESS PERIOD   22   TIME STEP   12
 
 SOLVING FOR HEAD 
                                                   Max.-Head-Change                         Max.-Flux-Residual
  Residual-Control   Outer-Iter.   Inner-Iter.     Column Row Layer    Maximum-Head-Change  Column Row Layer    Maximum-Flux-Residual          L2-NORM 
          0                 1           2             4    7     1       0.3367380558E-01       4    7    1         0.1764722943E+01      0.4468955406E+01
          0                 2           2             4    7     1      -0.3275546268E-02       4    7    1        -0.1764725321E+00      0.5157997497E+00
          0                 3           2             4   13     1      -0.1707991939E-02       4   13    1        -0.1004308158E+00      0.1836080286E+00
          0                 4           1             4   13     1       0.5957214906E-04       4   13    1         0.3602231001E-02      0.6390828818E-02

    ------------------------------------------------
       NWT REQUIRED            4 OUTER ITERATIONS 
       AND A TOTAL OF          7 INNER ITERATIONS.
    ------------------------------------------------

 NO OUTPUT CONTROL FOR STRESS PERIOD   22   TIME STEP   13
 
 SOLVING FOR HEAD 
                                                   Max.-Head-Change                         Max.-Flux-Residual
  Residual-Control   Outer-Iter.   Inner-Iter.     Column Row Layer    Maximum-Head-Change  Column Row Layer    Maximum-Flux-Residual          L2-NORM 
          0                 1           2             4    7     1       0.3336922937E-01       4    7    1         0.1749657815E+01      0.4358676662E+01
          0                 2           2             4    7     1      -0.3245920579E-02       4    7    1        -0.1749661038E+00      0.5060720775E+00
          0                 3           2             4   13     1      -0.1711035912E-02       4   13    1        -0.1006097518E+00      0.1837857774E+00
          0                 4           1             4   13     1       0.6014341574E-04       4   13    1         0.3636760208E-02      0.6445522505E-02

    ------------------------------------------------
       NWT REQUIRED            4 OUTER ITERATIONS 
       AND A TOTAL OF          7 INNER ITERATIONS.
    ------------------------------------------------

 NO OUTPUT CONTROL FOR STRESS PERIOD   22   TIME STEP   14
 
 SOLVING FOR HEAD 
                                                   Max.-Head-Change                         Max.-Flux-Residual
  Residual-Control   Outer-Iter.   Inner-Iter.     Column Row Layer    Maximum-Head-Change  Column Row Layer    Maximum-Flux-Residual          L2-NORM 
          0                 1           2             4    7     1       0.3305152706E-01       4    7    1         0.1733829149E+01      0.4253276058E+01
          0                 2           2             4    7     1      -0.3215012406E-02       4    7    1        -0.1733833118E+00      0.4966353442E+00
          0                 3           2             4   13     1      -0.1709521288E-02       4   13    1        -0.1005207259E+00      0.1834904381E+00
          0                 4           1             4   13     1       0.5971586433E-04       4   13    1         0.3610922858E-02      0.6391175454E-02

    ------------------------------------------------
       NWT REQUIRED            4 OUTER ITERATIONS 
       AND A TOTAL OF          7 INNER ITERATIONS.
    ------------------------------------------------

 NO OUTPUT CONTROL FOR STRESS PERIOD   22   TIME STEP   15
 
 SOLVING FOR HEAD 
                                                   Max.-Head-Change                         Max.-Flux-Residual
  Residual-Control   Outer-Iter.   Inner-Iter.     Column Row Layer    Maximum-Head-Change  Column Row Layer    Maximum-Flux-Residual          L2-NORM 
          0                 1           2             4    7     1       0.3272221458E-01       4    7    1         0.1717320198E+01      0.4152720690E+01
          0                 2           2             4    7     1      -0.3182985800E-02       4    7    1        -0.1717324822E+00      0.4881678039E+00
          0                 3           2             4   13     1      -0.1712604838E-02       4   13    1        -0.1007019099E+00      0.1836997433E+00
          0                 4           1             4   13     1       0.6027302704E-04       4   13    1         0.3644548108E-02      0.6448994233E-02

    ------------------------------------------------
       NWT REQUIRED            4 OUTER ITERATIONS 
       AND A TOTAL OF          7 INNER ITERATIONS.
    ------------------------------------------------

 NO OUTPUT CONTROL FOR STRESS PERIOD   22   TIME STEP   16
 
 SOLVING FOR HEAD 
                                                   Max.-Head-Change                         Max.-Flux-Residual
  Residual-Control   Outer-Iter.   Inner-Iter.     Column Row Layer    Maximum-Head-Change  Column Row Layer    Maximum-Flux-Residual          L2-NORM 
          0                 1           2             4    7     1       0.3238280837E-01       4    7    1         0.1700216040E+01      0.4056805665E+01
          0                 2           2             4    7     1      -0.3149971691E-02       4    7    1        -0.1700221236E+00      0.4799684177E+00
          0                 3           2             4   13     1      -0.1710901552E-02       4   13    1        -0.1006018221E+00      0.1834070510E+00
          0                 4           1             4   13     1       0.5975581266E-04       4   13    1         0.3613336492E-02      0.6387371641E-02

    ------------------------------------------------
       NWT REQUIRED            4 OUTER ITERATIONS 
       AND A TOTAL OF          7 INNER ITERATIONS.
    ------------------------------------------------

 NO OUTPUT CONTROL FOR STRESS PERIOD   22   TIME STEP   17
 
 SOLVING FOR HEAD 
                                                   Max.-Head-Change                         Max.-Flux-Residual
  Residual-Control   Outer-Iter.   Inner-Iter.     Column Row Layer    Maximum-Head-Change  Column Row Layer    Maximum-Flux-Residual          L2-NORM 
          0                 1           2             4    7     1       0.3203433810E-01       4    7    1         0.1682574099E+01      0.3964835439E+01
          0                 2           2             4    7     1      -0.3116075784E-02       4    7    1        -0.1682579792E+00      0.4720521327E+00
          0                 3           2             4   13     1      -0.1711062281E-02       4   13    1        -0.1006113164E+00      0.1833136614E+00
          0                 4           1             4   13     1       0.5924038199E-04       4   13    1         0.3582182295E-02      0.6327427636E-02

    ------------------------------------------------
       NWT REQUIRED            4 OUTER ITERATIONS 
       AND A TOTAL OF          7 INNER ITERATIONS.
    ------------------------------------------------

 NO OUTPUT CONTROL FOR STRESS PERIOD   22   TIME STEP   18
 
 SOLVING FOR HEAD 
                                                   Max.-Head-Change                         Max.-Flux-Residual
  Residual-Control   Outer-Iter.   Inner-Iter.     Column Row Layer    Maximum-Head-Change  Column Row Layer    Maximum-Flux-Residual          L2-NORM 
          0                 1           2             4    7     1       0.3167815636E-01       4    7    1         0.1664469552E+01      0.3876575709E+01
          0                 2           2             4    7     1      -0.3081429659E-02       4    7    1        -0.1664475675E+00      0.4646179653E+00
          0                 3           2             4   13     1      -0.1709136194E-02       4   13    1        -0.1004980724E+00      0.1830116221E+00
          0                 4           1             4   13     1       0.5866439269E-04       4   13    1         0.3547365440E-02      0.6262259624E-02

    ------------------------------------------------
       NWT REQUIRED            4 OUTER ITERATIONS 
       AND A TOTAL OF          7 INNER ITERATIONS.
    ------------------------------------------------

 NO OUTPUT CONTROL FOR STRESS PERIOD   22   TIME STEP   19
 
 SOLVING FOR HEAD 
                                                   Max.-Head-Change                         Max.-Flux-Residual
  Residual-Control   Outer-Iter.   Inner-Iter.     Column Row Layer    Maximum-Head-Change  Column Row Layer    Maximum-Flux-Residual          L2-NORM 
          0                 1           2             4    7     1       0.3131538131E-01       4    7    1         0.1645965169E+01      0.3791812625E+01
          0                 2           2             4    7     1      -0.3046142118E-02       4    7    1        -0.1645971658E+00      0.4570619635E+00
          0                 3           2             4   13     1      -0.1726981937E-02       4   13    1        -0.1015470384E+00      0.1847790182E+00
          0                 4           1             4   13     1       0.6279514802E-04       4   13    1         0.3797060203E-02      0.6696711443E-02

    ------------------------------------------------
       NWT REQUIRED            4 OUTER ITERATIONS 
       AND A TOTAL OF          7 INNER ITERATIONS.
    ------------------------------------------------

 NO OUTPUT CONTROL FOR STRESS PERIOD   22   TIME STEP   20
 
 SOLVING FOR HEAD 
                                                   Max.-Head-Change                         Max.-Flux-Residual
  Residual-Control   Outer-Iter.   Inner-Iter.     Column Row Layer    Maximum-Head-Change  Column Row Layer    Maximum-Flux-Residual          L2-NORM 
          0                 1           2             4    7     1       0.3094691887E-01       4    7    1         0.1627111559E+01      0.3710348609E+01
          0                 2           2             4    7     1      -0.3010301609E-02       4    7    1        -0.1627118358E+00      0.4503744802E+00
          0                 3           2             4   13     1      -0.1719770344E-02       4   13    1        -0.1011231567E+00      0.1839344575E+00
          0                 4           1             4   13     1       0.6065499073E-04       4   13    1         0.3667704016E-02      0.6464548151E-02

    ------------------------------------------------
       NWT REQUIRED            4 OUTER ITERATIONS 
       AND A TOTAL OF          7 INNER ITERATIONS.
    ------------------------------------------------

 NO OUTPUT CONTROL FOR STRESS PERIOD   22   TIME STEP   21
 
 SOLVING FOR HEAD 
                                                   Max.-Head-Change                         Max.-Flux-Residual
  Residual-Control   Outer-Iter.   Inner-Iter.     Column Row Layer    Maximum-Head-Change  Column Row Layer    Maximum-Flux-Residual          L2-NORM 
          0                 1           2             4    7     1       0.3057386895E-01       4    7    1         0.1607970404E+01      0.3631981138E+01
          0                 2           2             4    7     1      -0.2974014393E-02       4    7    1        -0.1607977462E+00      0.4438721585E+00
          0                 3           2             4   13     1      -0.1717144764E-02       4   13    1        -0.1009687826E+00      0.1835763138E+00
          0                 4           1             4   13     1       0.5955710277E-04       4   13    1         0.3601277104E-02      0.6346265785E-02

    ------------------------------------------------
       NWT REQUIRED            4 OUTER ITERATIONS 
       AND A TOTAL OF          7 INNER ITERATIONS.
    ------------------------------------------------

 NO OUTPUT CONTROL FOR STRESS PERIOD   22   TIME STEP   22
 
 SOLVING FOR HEAD 
                                                   Max.-Head-Change                         Max.-Flux-Residual
  Residual-Control   Outer-Iter.   Inner-Iter.     Column Row Layer    Maximum-Head-Change  Column Row Layer    Maximum-Flux-Residual          L2-NORM 
          0                 1           2             4    7     1       0.3019711903E-01       4    7    1         0.1588591408E+01      0.3556543589E+01
          0                 2           2             4    7     1      -0.2937367200E-02       4    7    1        -0.1588598679E+00      0.4377701069E+00
          0                 3           2             4   13     1      -0.1708606150E-02       4   13    1        -0.1004669461E+00      0.1825994881E+00
          0                 4           1             4   13     1       0.5685020842E-04       4   13    1         0.3437689224E-02      0.6052751030E-02

    ------------------------------------------------
       NWT REQUIRED            4 OUTER ITERATIONS 
       AND A TOTAL OF          7 INNER ITERATIONS.
    ------------------------------------------------

 NO OUTPUT CONTROL FOR STRESS PERIOD   22   TIME STEP   23
 
 SOLVING FOR HEAD 
                                                   Max.-Head-Change                         Max.-Flux-Residual
  Residual-Control   Outer-Iter.   Inner-Iter.     Column Row Layer    Maximum-Head-Change  Column Row Layer    Maximum-Flux-Residual          L2-NORM 
          0                 1           2             4    7     1       0.2981736235E-01       4    7    1         0.1569013201E+01      0.3483876789E+01
          0                 2           2             4    7     1      -0.2900427470E-02       4    7    1        -0.1569020642E+00      0.4318240020E+00
          0                 3           2             4   13     1      -0.1706625448E-02       4   13    1        -0.1003505315E+00      0.1823087689E+00
          0                 4           1             4   13     1       0.5596726570E-04       4   13    1         0.3384330099E-02      0.5954309104E-02

    ------------------------------------------------
       NWT REQUIRED            4 OUTER ITERATIONS 
       AND A TOTAL OF          7 INNER ITERATIONS.
    ------------------------------------------------

 NO OUTPUT CONTROL FOR STRESS PERIOD   22   TIME STEP   24
 
 SOLVING FOR HEAD 
                                                   Max.-Head-Change                         Max.-Flux-Residual
  Residual-Control   Outer-Iter.   Inner-Iter.     Column Row Layer    Maximum-Head-Change  Column Row Layer    Maximum-Flux-Residual          L2-NORM 
          0                 1           2             4    7     1       0.2943535619E-01       4    7    1         0.1549279090E+01      0.3413817324E+01
          0                 2           2             4    7     1      -0.2863268872E-02       4    7    1        -0.1549286664E+00      0.4261276578E+00
          0                 3           2             4   13     1      -0.1704549746E-02       4   13    1        -0.1002285230E+00      0.1820221113E+00
          0                 4           1             4   13     1       0.5502836722E-04       4   13    1         0.3327556310E-02      0.5851810490E-02

    ------------------------------------------------
       NWT REQUIRED            4 OUTER ITERATIONS 
       AND A TOTAL OF          7 INNER ITERATIONS.
    ------------------------------------------------

 NO OUTPUT CONTROL FOR STRESS PERIOD   22   TIME STEP   25
 
 SOLVING FOR HEAD 
                                                   Max.-Head-Change                         Max.-Flux-Residual
  Residual-Control   Outer-Iter.   Inner-Iter.     Column Row Layer    Maximum-Head-Change  Column Row Layer    Maximum-Flux-Residual          L2-NORM 
          0                 1           2             4    7     1       0.2905180225E-01       4    7    1         0.1529428340E+01      0.3346227746E+01
          0                 2           2             4    7     1      -0.2825959668E-02       4    7    1        -0.1529436013E+00      0.4206762101E+00
          0                 3           2             4   13     1      -0.1700917686E-02       4   13    1        -0.1000150534E+00      0.1815701454E+00
          0                 4           1             4   13     1       0.5352826444E-04       4   13    1         0.3236889511E-02      0.5688274353E-02

    ------------------------------------------------
       NWT REQUIRED            4 OUTER ITERATIONS 
       AND A TOTAL OF          7 INNER ITERATIONS.
    ------------------------------------------------

 NO OUTPUT CONTROL FOR STRESS PERIOD   22   TIME STEP   26
 
 SOLVING FOR HEAD 
                                                   Max.-Head-Change                         Max.-Flux-Residual
  Residual-Control   Outer-Iter.   Inner-Iter.     Column Row Layer    Maximum-Head-Change  Column Row Layer    Maximum-Flux-Residual          L2-NORM 
          0                 1           2             4    7     1       0.2866748403E-01       4    7    1         0.1509504699E+01      0.3280994016E+01
          0                 2           2             4    7     1      -0.2788576076E-02       4    7    1        -0.1509512441E+00      0.4154579882E+00
          0                 3           2             4   13     1      -0.1697370503E-02       4   13    1        -0.9980659320E-01      0.1811298739E+00
          0                 4           1             4   13     1       0.5208932747E-04       4   13    1         0.3149929744E-02      0.5530794075E-02

    ------------------------------------------------
       NWT REQUIRED            4 OUTER ITERATIONS 
       AND A TOTAL OF          7 INNER ITERATIONS.
    ------------------------------------------------

 NO OUTPUT CONTROL FOR STRESS PERIOD   22   TIME STEP   27
 
 SOLVING FOR HEAD 
                                                   Max.-Head-Change                         Max.-Flux-Residual
  Residual-Control   Outer-Iter.   Inner-Iter.     Column Row Layer    Maximum-Head-Change  Column Row Layer    Maximum-Flux-Residual          L2-NORM 
          0                 1           2             4    7     1       0.2828285362E-01       4    7    1         0.1489534059E+01      0.3217973786E+01
          0                 2           2             4    7     1      -0.2751162076E-02       4    7    1        -0.1489541841E+00      0.4103211361E+00
          0                 3           2             4   13     1      -0.1696756644E-02       4   13    1        -0.9977055078E-01      0.1810005132E+00
          0                 4           1             4   13     1       0.5170829841E-04       4   13    1         0.3126871169E-02      0.5488714627E-02

    ------------------------------------------------
       NWT REQUIRED            4 OUTER ITERATIONS 
       AND A TOTAL OF          7 INNER ITERATIONS.
    ------------------------------------------------

 NO OUTPUT CONTROL FOR STRESS PERIOD   22   TIME STEP   28
 
 SOLVING FOR HEAD 
                                                   Max.-Head-Change                         Max.-Flux-Residual
  Residual-Control   Outer-Iter.   Inner-Iter.     Column Row Layer    Maximum-Head-Change  Column Row Layer    Maximum-Flux-Residual          L2-NORM 
          0                 1           2             4    7     1       0.2789845313E-01       4    7    1         0.1469547226E+01      0.3157064211E+01
          0                 2           2             4    7     1      -0.2713770407E-02       4    7    1        -0.1469555025E+00      0.4057342285E+00
          0                 3           2             4   13     1      -0.1670595118E-02       4   13    1        -0.9823300355E-01      0.1781931117E+00
          0                 4           1             4   13     1       0.4618424473E-04       4   13    1         0.2792953554E-02      0.4900536218E-02

    ------------------------------------------------
       NWT REQUIRED            4 OUTER ITERATIONS 
       AND A TOTAL OF          7 INNER ITERATIONS.
    ------------------------------------------------

 NO OUTPUT CONTROL FOR STRESS PERIOD   22   TIME STEP   29
 
 SOLVING FOR HEAD 
                                                   Max.-Head-Change                         Max.-Flux-Residual
  Residual-Control   Outer-Iter.   Inner-Iter.     Column Row Layer    Maximum-Head-Change  Column Row Layer    Maximum-Flux-Residual          L2-NORM 
          0                 1           2             4    7     1       0.2751491056E-01       4    7    1         0.1449579677E+01      0.3096639089E+01
          0                 2           2             4    7     1      -0.2676462158E-02       4   13    1        -0.1450969783E+00      0.4000491132E+00
          0                 3           2             4   13     1      -0.1679685988E-02       4   13    1        -0.9876109652E-01      0.1792030951E+00
          0                 4           1             4   13     1       0.4858363658E-04       4   13    1         0.2937805149E-02      0.5155722938E-02

    ------------------------------------------------
       NWT REQUIRED            4 OUTER ITERATIONS 
       AND A TOTAL OF          7 INNER ITERATIONS.
    ------------------------------------------------

 NO OUTPUT CONTROL FOR STRESS PERIOD   22   TIME STEP   30



 STREAM LISTING     PERIOD     22   STEP       30

 LAYER ROW COL. STREAM  RCH.  FLOW INTO     FLOW TO   FLOW OUT OF   OVRLND.     DIRECT     STREAM       STREAM     STREAM     STREAM   STREAMBED  STREAMBED
                SEG.NO.  NO.  STRM. RCH.    AQUIFER    STRM. RCH.    RUNOFF     PRECIP       ET          HEAD       DEPTH      WIDTH   CONDCTNC.   GRADIENT

   1    1    1     1     1    1.8324E+01  2.0985E-01   1.8114E+01  0.000E+00  0.000E+00  0.000E+00  1.09412E+03  1.071E+00  1.146E+01  5.155E-02  1.357E+00
   1    2    2     1     2    1.8114E+01  3.2368E-01   1.7790E+01  0.000E+00  0.000E+00  0.000E+00  1.08912E+03  1.066E+00  1.137E+01  7.960E-02  1.355E+00
   1    3    3     1     3    1.7790E+01  2.7478E-01   1.7515E+01  0.000E+00  0.000E+00  0.000E+00  1.08348E+03  1.061E+00  1.128E+01  6.766E-02  1.354E+00
   1    3    4     1     4    1.7515E+01  2.5199E-01   1.7263E+01  0.000E+00  0.000E+00  0.000E+00  1.07846E+03  1.056E+00  1.119E+01  6.212E-02  1.352E+00
   1    4    5     2     1    1.5263E+01  3.0363E-01   1.4960E+01  0.000E+00  0.000E+00  0.000E+00  1.07283E+03  8.927E-01  1.200E+01  7.800E-02  1.298E+00
   1    5    6     2     2    1.4960E+01  2.3299E-01   1.4727E+01  0.000E+00  0.000E+00  0.000E+00  1.06739E+03  8.832E-01  1.200E+01  6.000E-02  1.294E+00
   1    6    6     2     3    1.4727E+01  2.3249E-01   1.4494E+01  0.000E+00  0.000E+00  0.000E+00  1.06267E+03  8.749E-01  1.200E+01  6.000E-02  1.292E+00
   1    7    6     2     4    1.4494E+01  2.3199E-01   1.4262E+01  0.000E+00  0.000E+00  0.000E+00  1.05794E+03  8.665E-01  1.200E+01  6.000E-02  1.289E+00
   1    8    6     2     5    1.4262E+01  2.3149E-01   1.4031E+01  0.000E+00  0.000E+00  0.000E+00  1.05322E+03  8.581E-01  1.200E+01  6.000E-02  1.286E+00
   1    3    5     3     1    2.0000E+00  2.8252E-01   1.7175E+00  0.000E+00  0.000E+00  0.000E+00  1.07555E+03  1.909E+00  9.636E+00  7.227E-02  1.955E+00
   1    3    6     3     2    1.7175E+00  2.4905E-01   1.4684E+00  0.000E+00  0.000E+00  0.000E+00  1.07264E+03  1.727E+00  8.909E+00  6.682E-02  1.864E+00
   1    3    7     3     3    1.4684E+00  1.9718E-01   1.2712E+00  0.000E+00  0.000E+00  0.000E+00  1.06987E+03  1.555E+00  8.218E+00  5.547E-02  1.777E+00
   1    4    8     3     4    1.2712E+00  2.2567E-01   1.0456E+00  0.000E+00  0.000E+00  0.000E+00  1.06682E+03  1.364E+00  7.455E+00  6.709E-02  1.682E+00
   1    5    8     3     5    1.0456E+00  1.5790E-01   8.8768E-01  0.000E+00  0.000E+00  0.000E+00  1.06362E+03  1.164E+00  6.655E+00  4.991E-02  1.582E+00
   1    6    8     3     6    8.8768E-01  5.5980E-02   8.3170E-01  0.000E+00  0.000E+00  0.000E+00  1.06158E+03  1.036E+00  6.145E+00  1.844E-02  1.518E+00
   1    5   10     4     1    1.0000E+01  9.0919E-02   9.9091E+00  0.000E+00  0.000E+00  0.000E+00  1.07836E+03  6.368E-01  1.000E+01  2.500E-02  1.212E+00
   1    5    9     4     2    9.9091E+00  1.8158E-01   9.7275E+00  0.000E+00  0.000E+00  0.000E+00  1.07154E+03  6.315E-01  1.000E+01  5.000E-02  1.211E+00
   1    6    8     4     3    9.7275E+00  1.2689E-01   9.6006E+00  0.000E+00  0.000E+00  0.000E+00  1.06381E+03  6.256E-01  1.000E+01  3.500E-02  1.209E+00
   1    6    8     5     1    1.0432E+01  2.2686E-01   1.0205E+01  0.000E+00  0.000E+00  0.000E+00  1.05868E+03  6.790E-01  1.542E+01  6.166E-02  1.226E+00
   1    7    7     5     2    1.0205E+01  2.7894E-01   9.9265E+00  0.000E+00  0.000E+00  0.000E+00  1.05417E+03  6.732E-01  1.519E+01  7.594E-02  1.224E+00
   1    8    7     5     3    9.9265E+00  1.9221E-01   9.7343E+00  0.000E+00  0.000E+00  0.000E+00  1.04992E+03  6.676E-01  1.497E+01  5.241E-02  1.223E+00
   1    8    6     5     4    9.7343E+00  1.3577E-01   9.5985E+00  0.000E+00  0.000E+00  0.000E+00  1.04691E+03  6.637E-01  1.482E+01  3.706E-02  1.221E+00
   1    9    6     6     1    1.2566E+01  2.2907E-01   1.2337E+01  0.000E+00  0.000E+00  0.000E+00  1.04355E+03  8.179E-01  1.200E+01  6.000E-02  1.273E+00
   1   10    7     6     2    1.2337E+01  2.2855E-01   1.2109E+01  0.000E+00  0.000E+00  0.000E+00  1.03899E+03  8.091E-01  1.200E+01  6.000E-02  1.270E+00
   1   11    7     6     3    1.2109E+01  2.2802E-01   1.1881E+01  0.000E+00  0.000E+00  0.000E+00  1.03444E+03  8.003E-01  1.200E+01  6.000E-02  1.267E+00
   1   12    7     6     4    1.1881E+01  2.2748E-01   1.1653E+01  0.000E+00  0.000E+00  0.000E+00  1.02988E+03  7.914E-01  1.200E+01  6.000E-02  1.264E+00
   1   13    7     6     5    1.1653E+01 -9.0234E-02   1.1744E+01  0.000E+00  0.000E+00  0.000E+00  1.02670E+03  7.887E-01  1.200E+01  2.400E-01 -1.253E-01
   1   14    9     7     1    1.5000E+02  1.3363E+00   1.4866E+02  0.000E+00  0.000E+00  0.000E+00  1.03987E+03  2.288E+00  5.529E+01  5.593E-01  7.964E-01
   1   13    8     7     2    1.4866E+02  1.8291E+00   1.4683E+02  0.000E+00  0.000E+00  0.000E+00  1.03478E+03  2.279E+00  5.526E+01  6.148E-01  9.917E-01
   1   13    7     7     3    1.4683E+02  1.4610E+00   1.4537E+02  0.000E+00  0.000E+00  0.000E+00  1.02969E+03  2.271E+00  5.522E+01  5.585E-01  8.720E-01
   1   13    6     8     1    1.5712E+02  8.3525E-01   1.5628E+02  0.000E+00  0.000E+00  0.000E+00  1.02474E+03  2.866E+00  4.156E+01  4.235E-01  6.575E-01
   1   13    5     8     2    1.5628E+02  1.0551E-01   1.5618E+02  0.000E+00  0.000E+00  0.000E+00  1.01849E+03  2.863E+00  4.151E+01  4.230E-01  8.315E-02
   1   13    4     8     3    1.5618E+02 -2.6592E+00   1.5884E+02  0.000E+00  0.000E+00  0.000E+00  1.01225E+03  2.871E+00  4.164E+01  4.243E+00 -2.089E-01
   1   13    3     8     4    1.5884E+02 -3.7465E+00   1.6258E+02  0.000E+00  0.000E+00  0.000E+00  1.00602E+03  2.893E+00  4.195E+01  4.275E+00 -2.921E-01
   1   13    2     8     5    1.6258E+02 -2.6012E+00   1.6518E+02  0.000E+00  0.000E+00  0.000E+00  9.99789E+02  2.914E+00  4.226E+01  4.306E+00 -2.014E-01
   1   13    1     8     6    1.6518E+02 -1.9811E+00   1.6716E+02  0.000E+00  0.000E+00  0.000E+00  9.94805E+02  2.930E+00  4.248E+01  2.597E+00 -2.543E-01
   1    8    6     9     1    1.1063E+01  0.0000E+00   1.1063E+01  0.000E+00  0.000E+00  0.000E+00  1.08111E+03  2.359E+00  4.000E+00  0.000E+00  1.786E+00
   1    8    5     9     2    1.1063E+01  0.0000E+00   1.1063E+01  0.000E+00  0.000E+00  0.000E+00  1.08061E+03  2.359E+00  4.000E+00  0.000E+00  1.786E+00





UNSATURATED ZONE PACKAGE VOLUMETRIC BUDGET FOR  TIME STEP    30 STRESS PERIOD   22
  ------------------------------------------------------------------------------



     CUMULATIVE VOLUMES      L**3       RATES FOR THIS TIME STEP      L**3/T
     ------------------                 ------------------------

           IN:                                      IN:
           ---                                      ---
        INFILTRATION =  1044594034.9695          INFILTRATION =          15.4705

          OUT:                                     OUT:
          ----                                     ----
              UZF ET =   984852557.7466                UZF ET =          15.3575
        UZF RECHARGE =      654072.9065          UZF RECHARGE =       0.0000E+00

            IN - OUT =    59087404.3164              IN - OUT =           0.1129

          STORAGE:                                 STORAGE:
          --------                                 --------
      STORAGE CHANGE =    59087991.1284        STORAGE CHANGE =           0.1129

 PERCENT DISCREPANCY IS DIFFERENCE BETWEEN IN-OUT MINUS CHANGE IN STORAGE
 DIVIDED BY THE AVERAGE OF IN AND OUT TIMES 100

 PERCENT DISCREPANCY =          -0.00     PERCENT DISCREPANCY =           0.00






1
  VOLUMETRIC BUDGET FOR ENTIRE MODEL AT END OF TIME STEP   30, STRESS PERIOD  22
  ------------------------------------------------------------------------------

     CUMULATIVE VOLUMES      L**3       RATES FOR THIS TIME STEP      L**3/T
     ------------------                 ------------------------

           IN:                                      IN:
           ---                                      ---
               AG WELLS  =   176029504.0000                 AG WELLS  =           0.0000
      DIVERSION SEGMENTS =   625052736.0000        DIVERSION SEGMENTS =          11.0627
           GW IRRIGATION =           0.0000             GW IRRIGATION =           0.0000
           SW IRRIGATION =           0.0000             SW IRRIGATION =           0.0000
        SYSTEM LOSSES GW =           0.0000          SYSTEM LOSSES GW =           0.0000
        SYSTEM LOSSES SW =           0.0000          SYSTEM LOSSES SW =           0.0000

                TOTAL IN =   801082240.0000                  TOTAL IN =          11.0627

          OUT:                                     OUT:
          ----                                     ----
               AG WELLS  =           0.0000                 AG WELLS  =           0.0000
      DIVERSION SEGMENTS =           0.0000        DIVERSION SEGMENTS =           0.0000
           GW IRRIGATION =   176029504.0000             GW IRRIGATION =           0.0000
           SW IRRIGATION =   625066496.0000             SW IRRIGATION =          11.0630
        SYSTEM LOSSES GW =           0.0000          SYSTEM LOSSES GW =           0.0000
        SYSTEM LOSSES SW =           0.0000          SYSTEM LOSSES SW =           0.0000

               TOTAL OUT =   801096000.0000                 TOTAL OUT =          11.0630

                IN - OUT =      -13760.0000                  IN - OUT =      -2.2125E-04

     PERCENT DISCREPANCY =          -0.00         PERCENT DISCREPANCY =          -0.00



1
  VOLUMETRIC BUDGET FOR ENTIRE MODEL AT END OF TIME STEP   30, STRESS PERIOD  22
  ------------------------------------------------------------------------------

     CUMULATIVE VOLUMES      L**3       RATES FOR THIS TIME STEP      L**3/T
     ------------------                 ------------------------

           IN:                                      IN:
           ---                                      ---
             STORAGE     =   252812448.0000               STORAGE     =           6.9489
       CONSTANT HEAD     =           0.0000         CONSTANT HEAD     =           0.0000
     HEAD DEP BOUNDS     =    15807840.0000       HEAD DEP BOUNDS     =           0.2858
      STREAM LEAKAGE     =   660528576.0000        STREAM LEAKAGE     =          11.1746
        UZF RECHARGE     =      654073.0000          UZF RECHARGE     =           0.0000
               GW ET     =           0.0000                 GW ET     =           0.0000
     SURFACE LEAKAGE     =           0.0000       SURFACE LEAKAGE     =           0.0000
           AG WELLS      =           0.0000             AG WELLS      =           0.0000

                TOTAL IN =   929802944.0000                  TOTAL IN =          18.4093

          OUT:                                     OUT:
          ----                                     ----
             STORAGE     =   132889808.0000               STORAGE     =           7.0441
       CONSTANT HEAD     =           0.0000         CONSTANT HEAD     =           0.0000
     HEAD DEP BOUNDS     =    16086588.0000       HEAD DEP BOUNDS     =           0.2876
      STREAM LEAKAGE     =   602572032.0000        STREAM LEAKAGE     =          11.0782
        UZF RECHARGE     =           0.0000          UZF RECHARGE     =           0.0000
               GW ET     =     2231806.7500                 GW ET     =           0.0000
     SURFACE LEAKAGE     =           0.0000       SURFACE LEAKAGE     =           0.0000
           AG WELLS      =   176029504.0000             AG WELLS      =           0.0000

               TOTAL OUT =   929809728.0000                 TOTAL OUT =          18.4098

                IN - OUT =       -6784.0000                  IN - OUT =      -5.8365E-04

     PERCENT DISCREPANCY =          -0.00         PERCENT DISCREPANCY =          -0.00






         TIME SUMMARY AT END OF TIME STEP   30 IN STRESS PERIOD   22
                    SECONDS     MINUTES      HOURS       DAYS        YEARS
                    -----------------------------------------------------------
   TIME STEP LENGTH  87667.      1461.1      24.352      1.0147     2.77799E-03
 STRESS PERIOD TIME 2.63000E+06  43833.      730.56      30.440     8.33397E-02
         TOTAL TIME 5.53166E+07 9.21944E+05  15366.      640.24      1.7529    
1
1
                            STRESS PERIOD NO.   23, LENGTH =   2630000.    
                            -----------------------------------------------

                              NUMBER OF TIME STEPS =    30

                               MULTIPLIER FOR DELT =     1.000

                            INITIAL TIME STEP SIZE =   87666.66    

 REUSING NON-PARAMETER GHB CELLS FROM LAST STRESS PERIOD

      2 GHB CELLS

 REUSING STREAM SEGMENT DATA FROM LAST STRESS PERIOD



            AREAL INFILTRATION RATE
 READING ON UNIT   19 WITH FORMAT: (10F4.0)            

            1           2           3           4           5           6           7           8           9          10
 ........................................................................................................................
   1   1.2000E-09   0.000       0.000       0.000       0.000       0.000       0.000       0.000       0.000       0.000    
   2   2.1000E-09  2.0000E-09  8.0000E-10  8.5000E-09   0.000       0.000       0.000       0.000       0.000       0.000    
   3   5.0000E-10  1.1000E-09  8.8000E-09  5.5000E-09   0.000       0.000       0.000       0.000       0.000       0.000    
   4   8.5000E-09  1.1000E-09  1.1000E-09  1.1000E-09  2.0000E-09   0.000       0.000       0.000       0.000       0.000    
   5   8.5000E-09  1.1000E-09  1.1000E-09  1.1000E-09  1.1000E-09   0.000       0.000       0.000       0.000       0.000    
   6   8.5000E-09  5.2000E-09  2.1000E-09  1.1000E-09  1.5000E-09   0.000       0.000       0.000       0.000       0.000    
   7   8.5000E-09  5.2000E-09  2.1000E-09  1.2000E-09  2.0000E-09   0.000       0.000       0.000       0.000       0.000    
   8   5.0000E-10  5.2000E-09  2.1000E-09  1.2000E-09  5.0000E-09   0.000       0.000       0.000       0.000       0.000    
   9   5.0000E-10  5.2000E-09  2.1000E-09  1.2000E-09  5.0000E-09   0.000       0.000       0.000       0.000       0.000    
  10   5.0000E-10  5.2000E-09  2.1000E-09  1.2000E-09  5.8000E-09   0.000       0.000       0.000       0.000       0.000    
  11   1.0000E-10  1.1000E-09  1.1000E-09  1.2000E-09  5.0000E-09   0.000       0.000       0.000       0.000       0.000    
  12   1.1000E-09  1.1000E-09  1.1000E-09  1.1000E-09  2.0000E-09   0.000       0.000       0.000       0.000       0.000    
  13   1.1000E-09  2.2000E-09  2.2000E-09  2.1000E-09  1.0000E-09   0.000       0.000       0.000       0.000       0.000    
  14   2.0000E-10  5.5000E-09  5.5000E-09  5.2000E-09  1.0000E-09   0.000       0.000       0.000       0.000       0.000    
  15    0.000      8.8000E-09  8.8000E-09   0.000       0.000       0.000       0.000       0.000       0.000       0.000    

                  ET RATE =  5.000000E-09

 USING ET EXTINCTION DEPTH FROM PREVIOUS STRESS PERIOD. CURRENT PERIOD IS:      23

 USING EXTINCTION WATER CONTENT FROM PREVIOUS STRESS PERIOD. CURRENT PERIOD IS:      23

 USING AIR ENTRY PRESSURE FROM PREVIOUS STRESS PERIOD. CURRENT PERIOD IS:      23

 USING ROOT PRESSURE HEAD FROM PREVIOUS STRESS PERIOD. CURRENT PERIOD IS:      23

 USING ROOT ACTIVITY FROM PREVIOUS STRESS PERIOD. CURRENT PERIOD IS:      23

 PROCESSING AG STRESS PERIOD DATA

 READING AG STRESS PERIOD DATA

 READING IRRIGATION SEGMENT

 READING IRRIGATION WELL

 READING SUPPLEMENTAL WELL

 END PROCESSING AG STRESS PERIOD DATA OPTIONS
 
 SOLVING FOR HEAD 
                                                   Max.-Head-Change                         Max.-Flux-Residual
  Residual-Control   Outer-Iter.   Inner-Iter.     Column Row Layer    Maximum-Head-Change  Column Row Layer    Maximum-Flux-Residual          L2-NORM 
          0                 1           2             4    7     1       0.2713239013E-01       4    7    1         0.1429641867E+01      0.3034423317E+01
          0                 2           2             4    7     1      -0.2639253255E-02       4    7    1        -0.1429649637E+00      0.3033419268E+00
          0                 3           2             4    7     1       0.1797232488E-03       4    7    1         0.1000754441E-01      0.2122470107E-01
          0                 4           1             2   13     1      -0.8313609129E-05       2   13    1        -0.5128774092E-03      0.1006710069E-02

    ------------------------------------------------
       NWT REQUIRED            4 OUTER ITERATIONS 
       AND A TOTAL OF          7 INNER ITERATIONS.
    ------------------------------------------------

 NO OUTPUT CONTROL FOR STRESS PERIOD   23   TIME STEP    1
 
 SOLVING FOR HEAD 
                                                   Max.-Head-Change                         Max.-Flux-Residual
  Residual-Control   Outer-Iter.   Inner-Iter.     Column Row Layer    Maximum-Head-Change  Column Row Layer    Maximum-Flux-Residual          L2-NORM 
          0                 1           2             4    7     1       0.2675171500E-01       4    7    1         0.1409779160E+01      0.2976218637E+01
          0                 2           2             4    7     1      -0.2602223878E-02       4    7    1        -0.1409786888E+00      0.2975347821E+00
          0                 3           2             4    7     1       0.1772016866E-03       4    7    1         0.9868505162E-02      0.2081937964E-01
          0                 4           1             4    7     1      -0.7051021429E-05       4    7    1        -0.4036224586E-03      0.8505116493E-03

    ------------------------------------------------
       NWT REQUIRED            4 OUTER ITERATIONS 
       AND A TOTAL OF          7 INNER ITERATIONS.
    ------------------------------------------------

 NO OUTPUT CONTROL FOR STRESS PERIOD   23   TIME STEP    2
 
 SOLVING FOR HEAD 
                                                   Max.-Head-Change                         Max.-Flux-Residual
  Residual-Control   Outer-Iter.   Inner-Iter.     Column Row Layer    Maximum-Head-Change  Column Row Layer    Maximum-Flux-Residual          L2-NORM 
          0                 1           2             4    7     1       0.2637285235E-01       4    7    1         0.1389990013E+01      0.2920080527E+01
          0                 2           2             4    7     1      -0.2565370784E-02       4    7    1        -0.1389997685E+00      0.2919325651E+00
          0                 3           2             4    7     1       0.1746921283E-03       4    7    1         0.9729980739E-02      0.2042830551E-01
          0                 4           1             4    7     1      -0.6951163548E-05       4    7    1        -0.3979567900E-03      0.8350147939E-03

    ------------------------------------------------
       NWT REQUIRED            4 OUTER ITERATIONS 
       AND A TOTAL OF          7 INNER ITERATIONS.
    ------------------------------------------------

 NO OUTPUT CONTROL FOR STRESS PERIOD   23   TIME STEP    3
 
 SOLVING FOR HEAD 
                                                   Max.-Head-Change                         Max.-Flux-Residual
  Residual-Control   Outer-Iter.   Inner-Iter.     Column Row Layer    Maximum-Head-Change  Column Row Layer    Maximum-Flux-Residual          L2-NORM 
          0                 1           2             4    7     1       0.2599641521E-01       4    7    1         0.1370309573E+01      0.2865880284E+01
          0                 2           2             4    7     1      -0.2528753607E-02       4    7    1        -0.1370317175E+00      0.2865226106E+00
          0                 3           2             4    7     1       0.1721986355E-03       4    7    1         0.9592217182E-02      0.2005042439E-01
          0                 4           1             4    7     1      -0.6851945201E-05       4    7    1        -0.3923222575E-03      0.8196443965E-03

    ------------------------------------------------
       NWT REQUIRED            4 OUTER ITERATIONS 
       AND A TOTAL OF          7 INNER ITERATIONS.
    ------------------------------------------------

 NO OUTPUT CONTROL FOR STRESS PERIOD   23   TIME STEP    4
 
 SOLVING FOR HEAD 
                                                   Max.-Head-Change                         Max.-Flux-Residual
  Residual-Control   Outer-Iter.   Inner-Iter.     Column Row Layer    Maximum-Head-Change  Column Row Layer    Maximum-Flux-Residual          L2-NORM 
          0                 1           2             4    7     1       0.2562257384E-01       4    7    1         0.1350747519E+01      0.2813499182E+01
          0                 2           2             4    7     1      -0.2492388910E-02       4    7    1        -0.1350755040E+00      0.2812932634E+00
          0                 3           2             4    7     1       0.1697223356E-03       4    7    1         0.9455282251E-02      0.1968521704E-01
          0                 4           1             4    7     1      -0.6753410826E-05       4    7    1        -0.3867216092E-03      0.8048367127E-03

    ------------------------------------------------
       NWT REQUIRED            4 OUTER ITERATIONS 
       AND A TOTAL OF          7 INNER ITERATIONS.
    ------------------------------------------------

 NO OUTPUT CONTROL FOR STRESS PERIOD   23   TIME STEP    5
 
 SOLVING FOR HEAD 
                                                   Max.-Head-Change                         Max.-Flux-Residual
  Residual-Control   Outer-Iter.   Inner-Iter.     Column Row Layer    Maximum-Head-Change  Column Row Layer    Maximum-Flux-Residual          L2-NORM 
          0                 1           2             4    7     1       0.2525174720E-01       4    7    1         0.1331327418E+01      0.2762844174E+01
          0                 2           2             4    7     1      -0.2456317450E-02       4    7    1        -0.1331334848E+00      0.2762357406E+00
          0                 3           2             4    7     1       0.1672660044E-03       4    7    1         0.9319340928E-02      0.1933185273E-01
          0                 4           1             4    7     1      -0.6655671293E-05       4    7    1        -0.3811616098E-03      0.7903269495E-03

    ------------------------------------------------
       NWT REQUIRED            4 OUTER ITERATIONS 
       AND A TOTAL OF          7 INNER ITERATIONS.
    ------------------------------------------------

 NO OUTPUT CONTROL FOR STRESS PERIOD   23   TIME STEP    6
 
 SOLVING FOR HEAD 
                                                   Max.-Head-Change                         Max.-Flux-Residual
  Residual-Control   Outer-Iter.   Inner-Iter.     Column Row Layer    Maximum-Head-Change  Column Row Layer    Maximum-Flux-Residual          L2-NORM 
          0                 1           2             4    7     1       0.2488403638E-01       4    7    1         0.1312056252E+01      0.2713791310E+01
          0                 2           2             4    7     1      -0.2420549062E-02       4    7    1        -0.1312063582E+00      0.2713366740E+00
          0                 3           2             4    7     1       0.1648303110E-03       4    7    1         0.9184442092E-02      0.1898964377E-01
          0                 4           1             4    7     1      -0.6558752619E-05       4    7    1        -0.3756442361E-03      0.7764755427E-03

    ------------------------------------------------
       NWT REQUIRED            4 OUTER ITERATIONS 
       AND A TOTAL OF          7 INNER ITERATIONS.
    ------------------------------------------------

 NO OUTPUT CONTROL FOR STRESS PERIOD   23   TIME STEP    7
 
 SOLVING FOR HEAD 
                                                   Max.-Head-Change                         Max.-Flux-Residual
  Residual-Control   Outer-Iter.   Inner-Iter.     Column Row Layer    Maximum-Head-Change  Column Row Layer    Maximum-Flux-Residual          L2-NORM 
          0                 1           2             4    7     1       0.2451966928E-01       4    7    1         0.1292946633E+01      0.2666270181E+01
          0                 2           2             4    7     1      -0.2385105915E-02       4    7    1        -0.1292953855E+00      0.2665901584E+00
          0                 3           2             4    7     1       0.1624167660E-03       4    7    1         0.9050674061E-02      0.1865791837E-01
          0                 4           1             4    7     1      -0.6462715362E-05       4    7    1        -0.3701731207E-03      0.7629233062E-03

    ------------------------------------------------
       NWT REQUIRED            4 OUTER ITERATIONS 
       AND A TOTAL OF          7 INNER ITERATIONS.
    ------------------------------------------------

 NO OUTPUT CONTROL FOR STRESS PERIOD   23   TIME STEP    8
 
 SOLVING FOR HEAD 
                                                   Max.-Head-Change                         Max.-Flux-Residual
  Residual-Control   Outer-Iter.   Inner-Iter.     Column Row Layer    Maximum-Head-Change  Column Row Layer    Maximum-Flux-Residual          L2-NORM 
          0                 1           2             4    7     1       0.2415912130E-01       4    7    1         0.1274025119E+01      0.2620204892E+01
          0                 2           2             4    7     1      -0.2350034257E-02       4    7    1        -0.1274032228E+00      0.2619885421E+00
          0                 3           2             4    7     1       0.1600285175E-03       4    7    1         0.8918222723E-02      0.1833625718E-01
          0                 4           1             4    7     1      -0.6367684551E-05       4    7    1        -0.3647558419E-03      0.7497625344E-03

    ------------------------------------------------
       NWT REQUIRED            4 OUTER ITERATIONS 
       AND A TOTAL OF          7 INNER ITERATIONS.
    ------------------------------------------------

 NO OUTPUT CONTROL FOR STRESS PERIOD   23   TIME STEP    9
 
 SOLVING FOR HEAD 
                                                   Max.-Head-Change                         Max.-Flux-Residual
  Residual-Control   Outer-Iter.   Inner-Iter.     Column Row Layer    Maximum-Head-Change  Column Row Layer    Maximum-Flux-Residual          L2-NORM 
          0                 1           2             4    7     1       0.2380214604E-01       4    7    1         0.1255279505E+01      0.2575499119E+01
          0                 2           2             4    7     1      -0.2315310119E-02       4    7    1        -0.1255286494E+00      0.2575222845E+00
          0                 3           2             4    7     1       0.1576639345E-03       4    7    1         0.8787002650E-02      0.1802399303E-01
          0                 4           1             4    7     1      -0.6273595944E-05       4    7    1        -0.3593889392E-03      0.7370335380E-03

    ------------------------------------------------
       NWT REQUIRED            4 OUTER ITERATIONS 
       AND A TOTAL OF          7 INNER ITERATIONS.
    ------------------------------------------------

 NO OUTPUT CONTROL FOR STRESS PERIOD   23   TIME STEP   10
 
 SOLVING FOR HEAD 
                                                   Max.-Head-Change                         Max.-Flux-Residual
  Residual-Control   Outer-Iter.   Inner-Iter.     Column Row Layer    Maximum-Head-Change  Column Row Layer    Maximum-Flux-Residual          L2-NORM 
          0                 1           2             4    7     1       0.2344931110E-01       4    7    1         0.1236741243E+01      0.2532099891E+01
          0                 2           2             4    7     1      -0.2280988714E-02       4    7    1        -0.1236748109E+00      0.2531859825E+00
          0                 3           2             4    7     1       0.1553267759E-03       4    7    1         0.8657234007E-02      0.1772077569E-01
          0                 4           1             4    7     1      -0.6180598286E-05       4    7    1        -0.3540814050E-03      0.7246089872E-03

    ------------------------------------------------
       NWT REQUIRED            4 OUTER ITERATIONS 
       AND A TOTAL OF          7 INNER ITERATIONS.
    ------------------------------------------------

 NO OUTPUT CONTROL FOR STRESS PERIOD   23   TIME STEP   11
 
 SOLVING FOR HEAD 
                                                   Max.-Head-Change                         Max.-Flux-Residual
  Residual-Control   Outer-Iter.   Inner-Iter.     Column Row Layer    Maximum-Head-Change  Column Row Layer    Maximum-Flux-Residual          L2-NORM 
          0                 1           2             4    7     1       0.2310047672E-01       4    7    1         0.1218402904E+01      0.2489946927E+01
          0                 2           2             4    7     1      -0.2247056450E-02       4    7    1        -0.1218409642E+00      0.2489739728E+00
          0                 3           2             4    7     1       0.1530161163E-03       4    7    1         0.8528864803E-02      0.1742618211E-01
          0                 4           1             4    7     1      -0.6088654851E-05       4    7    1        -0.3488310936E-03      0.7125666337E-03

    ------------------------------------------------
       NWT REQUIRED            4 OUTER ITERATIONS 
       AND A TOTAL OF          7 INNER ITERATIONS.
    ------------------------------------------------

 NO OUTPUT CONTROL FOR STRESS PERIOD   23   TIME STEP   12
 
 SOLVING FOR HEAD 
                                                   Max.-Head-Change                         Max.-Flux-Residual
  Residual-Control   Outer-Iter.   Inner-Iter.     Column Row Layer    Maximum-Head-Change  Column Row Layer    Maximum-Flux-Residual          L2-NORM 
          0                 1           2             4    7     1       0.2275589502E-01       4    7    1         0.1200279358E+01      0.2448982227E+01
          0                 2           2             4    7     1      -0.2213537853E-02       4    7    1        -0.1200285967E+00      0.2448802244E+00
          0                 3           2             4    7     1       0.1507336257E-03       4    7    1         0.8401999139E-02      0.1713989662E-01
          0                 4           1             4    7     1      -0.5997832069E-05       4    7    1        -0.3436422639E-03      0.7009396002E-03

    ------------------------------------------------
       NWT REQUIRED            4 OUTER ITERATIONS 
       AND A TOTAL OF          7 INNER ITERATIONS.
    ------------------------------------------------

 NO OUTPUT CONTROL FOR STRESS PERIOD   23   TIME STEP   13
 
 SOLVING FOR HEAD 
                                                   Max.-Head-Change                         Max.-Flux-Residual
  Residual-Control   Outer-Iter.   Inner-Iter.     Column Row Layer    Maximum-Head-Change  Column Row Layer    Maximum-Flux-Residual          L2-NORM 
          0                 1           2             4    7     1       0.2241565545E-01       4    7    1         0.1182376305E+01      0.2409131997E+01
          0                 2           2             4    7     1      -0.2180441623E-02       4    7    1        -0.1182382782E+00      0.2408976705E+00
          0                 3           2             4    7     1       0.1484798974E-03       4    7    1         0.8276676922E-02      0.1686135014E-01
          0                 4           1             4    7     1      -0.5908154576E-05       4    7    1        -0.3385165937E-03      0.6895138856E-03

    ------------------------------------------------
       NWT REQUIRED            4 OUTER ITERATIONS 
       AND A TOTAL OF          7 INNER ITERATIONS.
    ------------------------------------------------

 NO OUTPUT CONTROL FOR STRESS PERIOD   23   TIME STEP   14
 
 SOLVING FOR HEAD 
                                                   Max.-Head-Change                         Max.-Flux-Residual
  Residual-Control   Outer-Iter.   Inner-Iter.     Column Row Layer    Maximum-Head-Change  Column Row Layer    Maximum-Flux-Residual          L2-NORM 
          0                 1           2             4    7     1       0.2207984657E-01       4    7    1         0.1164698384E+01      0.2370374073E+01
          0                 2           2             4    7     1      -0.2147776376E-02       4    7    1        -0.1164704727E+00      0.2370240298E+00
          0                 3           2             4    7     1       0.1462555170E-03       4    7    1         0.8152930599E-02      0.1659044018E-01
          0                 4           1             4    7     1      -0.5819644247E-05       4    7    1        -0.3334553580E-03      0.6784339948E-03

    ------------------------------------------------
       NWT REQUIRED            4 OUTER ITERATIONS 
       AND A TOTAL OF          7 INNER ITERATIONS.
    ------------------------------------------------

 NO OUTPUT CONTROL FOR STRESS PERIOD   23   TIME STEP   15
 
 SOLVING FOR HEAD 
                                                   Max.-Head-Change                         Max.-Flux-Residual
  Residual-Control   Outer-Iter.   Inner-Iter.     Column Row Layer    Maximum-Head-Change  Column Row Layer    Maximum-Flux-Residual          L2-NORM 
          0                 1           2             4    7     1       0.2174853356E-01       4    7    1         0.1147250185E+01      0.2332637083E+01
          0                 2           2             4    7     1      -0.2115548454E-02       4    7    1        -0.1147256394E+00      0.2332521691E+00
          0                 3           2             4    7     1       0.1440609173E-03       4    7    1         0.8030792350E-02      0.1632658029E-01
          0                 4           1             4    7     1      -0.5732319271E-05       4    7    1        -0.3284599079E-03      0.6676457832E-03

    ------------------------------------------------
       NWT REQUIRED            4 OUTER ITERATIONS 
       AND A TOTAL OF          7 INNER ITERATIONS.
    ------------------------------------------------

 NO OUTPUT CONTROL FOR STRESS PERIOD   23   TIME STEP   16
 
 SOLVING FOR HEAD 
                                                   Max.-Head-Change                         Max.-Flux-Residual
  Residual-Control   Outer-Iter.   Inner-Iter.     Column Row Layer    Maximum-Head-Change  Column Row Layer    Maximum-Flux-Residual          L2-NORM 
          0                 1           2             4    7     1       0.2142177021E-01       4    7    1         0.1130035089E+01      0.2295892819E+01
          0                 2           2             4    7     1      -0.2083763088E-02       4    7    1        -0.1130041162E+00      0.2295792569E+00
          0                 3           2             4    7     1       0.1418964534E-03       4    7    1         0.7910285804E-02      0.1606956315E-01
          0                 4           1             4    7     1      -0.5646192889E-05       4    7    1        -0.3235311665E-03      0.6571513414E-03

    ------------------------------------------------
       NWT REQUIRED            4 OUTER ITERATIONS 
       AND A TOTAL OF          7 INNER ITERATIONS.
    ------------------------------------------------

 NO OUTPUT CONTROL FOR STRESS PERIOD   23   TIME STEP   17
 
 SOLVING FOR HEAD 
                                                   Max.-Head-Change                         Max.-Flux-Residual
  Residual-Control   Outer-Iter.   Inner-Iter.     Column Row Layer    Maximum-Head-Change  Column Row Layer    Maximum-Flux-Residual          L2-NORM 
          0                 1           2             4    7     1       0.2109959156E-01       4    7    1         0.1113055884E+01      0.2260096326E+01
          0                 2           2             4    7     1      -0.2052423690E-02       4    7    1        -0.1113061823E+00      0.2260009562E+00
          0                 3           2             4    7     1       0.1397623585E-03       4    7    1         0.7791430505E-02      0.1581920387E-01
          0                 4           1             4    7     1      -0.5561275461E-05       4    7    1        -0.3186699782E-03      0.6469604213E-03

    ------------------------------------------------
       NWT REQUIRED            4 OUTER ITERATIONS 
       AND A TOTAL OF          7 INNER ITERATIONS.
    ------------------------------------------------

 NO OUTPUT CONTROL FOR STRESS PERIOD   23   TIME STEP   18
 
 SOLVING FOR HEAD 
                                                   Max.-Head-Change                         Max.-Flux-Residual
  Residual-Control   Outer-Iter.   Inner-Iter.     Column Row Layer    Maximum-Head-Change  Column Row Layer    Maximum-Flux-Residual          L2-NORM 
          0                 1           2             4    7     1       0.2078203483E-01       4    7    1         0.1096314389E+01      0.2225204167E+01
          0                 2           2             4    7     1      -0.2021533896E-02       4    7    1        -0.1096320192E+00      0.2225151761E+00
          0                 3           2             4    7     1       0.1376588799E-03       4    7    1         0.7674239152E-02      0.1557531699E-01
          0                 4           1             4    7     1      -0.5477576084E-05       4    7    1        -0.3138768516E-03      0.6369747949E-03

    ------------------------------------------------
       NWT REQUIRED            4 OUTER ITERATIONS 
       AND A TOTAL OF          7 INNER ITERATIONS.
    ------------------------------------------------

 NO OUTPUT CONTROL FOR STRESS PERIOD   23   TIME STEP   19
 
 SOLVING FOR HEAD 
                                                   Max.-Head-Change                         Max.-Flux-Residual
  Residual-Control   Outer-Iter.   Inner-Iter.     Column Row Layer    Maximum-Head-Change  Column Row Layer    Maximum-Flux-Residual          L2-NORM 
          0                 1           2             4    7     1       0.2046925687E-01       4    7    1         0.1079819905E+01      0.2191196985E+01
          0                 2           2             4    7     1      -0.1991108912E-02       4    7    1        -0.1079825574E+00      0.2191134141E+00
          0                 3           2             4    7     1       0.1355870533E-03       4    7    1         0.7558776918E-02      0.1533728026E-01
          0                 4           1             4    7     1      -0.5395135973E-05       4    7    1        -0.3091544254E-03      0.6272295341E-03

    ------------------------------------------------
       NWT REQUIRED            4 OUTER ITERATIONS 
       AND A TOTAL OF          7 INNER ITERATIONS.
    ------------------------------------------------

 NO OUTPUT CONTROL FOR STRESS PERIOD   23   TIME STEP   20
 
 SOLVING FOR HEAD 
                                                   Max.-Head-Change                         Max.-Flux-Residual
  Residual-Control   Outer-Iter.   Inner-Iter.     Column Row Layer    Maximum-Head-Change  Column Row Layer    Maximum-Flux-Residual          L2-NORM 
          0                 1           2             4    7     1       0.2016112112E-01       4    7    1         0.1063565820E+01      0.2158003910E+01
          0                 2           2             4    7     1      -0.1961135508E-02       4    7    1        -0.1063571356E+00      0.2157949140E+00
          0                 3           2             4    7     1       0.1335459777E-03       4    7    1         0.7444997472E-02      0.1510512768E-01
          0                 4           1             4    7     1      -0.5313919667E-05       4    7    1        -0.3045008443E-03      0.6177834901E-03

    ------------------------------------------------
       NWT REQUIRED            4 OUTER ITERATIONS 
       AND A TOTAL OF          7 INNER ITERATIONS.
    ------------------------------------------------

 NO OUTPUT CONTROL FOR STRESS PERIOD   23   TIME STEP   21
 
 SOLVING FOR HEAD 
                                                   Max.-Head-Change                         Max.-Flux-Residual
  Residual-Control   Outer-Iter.   Inner-Iter.     Column Row Layer    Maximum-Head-Change  Column Row Layer    Maximum-Flux-Residual          L2-NORM 
          0                 1           2             4    7     1       0.1985763267E-01       4    7    1         0.1047552424E+01      0.2125619933E+01
          0                 2           2             4    7     1      -0.1931614161E-02       4    7    1        -0.1047557828E+00      0.2125572976E+00
          0                 3           1             4    7     1       0.1315356858E-03       4    7    1         0.7332902856E-02      0.1487856578E-01
          0                 4           1             4    7     1      -0.5233929011E-05       4    7    1        -0.2999161647E-03      0.6085140164E-03

    ------------------------------------------------
       NWT REQUIRED            4 OUTER ITERATIONS 
       AND A TOTAL OF          6 INNER ITERATIONS.
    ------------------------------------------------

 NO OUTPUT CONTROL FOR STRESS PERIOD   23   TIME STEP   22
 
 SOLVING FOR HEAD 
                                                   Max.-Head-Change                         Max.-Flux-Residual
  Residual-Control   Outer-Iter.   Inner-Iter.     Column Row Layer    Maximum-Head-Change  Column Row Layer    Maximum-Flux-Residual          L2-NORM 
          0                 1           2             4    7     1       0.1955892645E-01       4    7    1         0.1031787360E+01      0.2094017839E+01
          0                 2           2             4    7     1      -0.1902557996E-02       4    7    1        -0.1031792632E+00      0.2093977635E+00
          0                 3           1             4    7     1       0.1295570705E-03       4    7    1         0.7222546554E-02      0.1465744509E-01
          0                 4           1             4    7     1      -0.5155197965E-05       4    7    1        -0.2954025890E-03      0.5994630340E-03

    ------------------------------------------------
       NWT REQUIRED            4 OUTER ITERATIONS 
       AND A TOTAL OF          6 INNER ITERATIONS.
    ------------------------------------------------

 NO OUTPUT CONTROL FOR STRESS PERIOD   23   TIME STEP   23
 
 SOLVING FOR HEAD 
                                                   Max.-Head-Change                         Max.-Flux-Residual
  Residual-Control   Outer-Iter.   Inner-Iter.     Column Row Layer    Maximum-Head-Change  Column Row Layer    Maximum-Flux-Residual          L2-NORM 
          0                 1           2             4    7     1       0.1926484264E-01       4    7    1         0.1016262869E+01      0.2063155196E+01
          0                 2           2             4    7     1      -0.1873951469E-02       4    7    1        -0.1016268012E+00      0.2063120815E+00
          0                 3           1             4    7     1       0.1276090741E-03       4    7    1         0.7113874296E-02      0.1444148429E-01
          0                 4           1             4    7     1      -0.5077685200E-05       4    7    1        -0.2909578834E-03      0.5906898459E-03

    ------------------------------------------------
       NWT REQUIRED            4 OUTER ITERATIONS 
       AND A TOTAL OF          6 INNER ITERATIONS.
    ------------------------------------------------

 NO OUTPUT CONTROL FOR STRESS PERIOD   23   TIME STEP   24
 
 SOLVING FOR HEAD 
                                                   Max.-Head-Change                         Max.-Flux-Residual
  Residual-Control   Outer-Iter.   Inner-Iter.     Column Row Layer    Maximum-Head-Change  Column Row Layer    Maximum-Flux-Residual          L2-NORM 
          0                 1           2             4    7     1       0.1897550452E-01       4    7    1         0.1000985420E+01      0.2033027900E+01
          0                 2           2             4    7     1      -0.1845806571E-02       4    7    1        -0.1000990436E+00      0.2032998564E+00
          0                 3           1             4    7     1       0.1256925125E-03       4    7    1         0.7006931332E-02      0.1423067976E-01
          0                 4           1             4    7     1      -0.5001423181E-05       4    7    1        -0.2865838987E-03      0.5820334035E-03

    ------------------------------------------------
       NWT REQUIRED            4 OUTER ITERATIONS 
       AND A TOTAL OF          6 INNER ITERATIONS.
    ------------------------------------------------

 NO OUTPUT CONTROL FOR STRESS PERIOD   23   TIME STEP   25
 
 SOLVING FOR HEAD 
                                                   Max.-Head-Change                         Max.-Flux-Residual
  Residual-Control   Outer-Iter.   Inner-Iter.     Column Row Layer    Maximum-Head-Change  Column Row Layer    Maximum-Flux-Residual          L2-NORM 
          0                 1           2             4    7     1       0.1869087806E-01       4    7    1         0.9859540281E+00      0.2003591563E+01
          0                 2           2             4    7     1      -0.1818119991E-02       4    7    1        -0.9859589183E-01      0.2003566611E+00
          0                 3           1             4    7     1       0.1238071612E-03       4    7    1         0.6901710779E-02      0.1402469034E-01
          0                 4           1             4    7     1      -0.4926403734E-05       4    7    1        -0.2822803917E-03      0.5735724572E-03

    ------------------------------------------------
       NWT REQUIRED            4 OUTER ITERATIONS 
       AND A TOTAL OF          6 INNER ITERATIONS.
    ------------------------------------------------

 NO OUTPUT CONTROL FOR STRESS PERIOD   23   TIME STEP   26
 
 SOLVING FOR HEAD 
                                                   Max.-Head-Change                         Max.-Flux-Residual
  Residual-Control   Outer-Iter.   Inner-Iter.     Column Row Layer    Maximum-Head-Change  Column Row Layer    Maximum-Flux-Residual          L2-NORM 
          0                 1           2             4    7     1       0.1841079714E-01       4    7    1         0.9711595506E+00      0.1974838213E+01
          0                 2           2             4    7     1      -0.1790875573E-02       4    7    1        -0.9711643171E-01      0.1974817602E+00
          0                 3           1             4    7     1       0.1219519194E-03       4    7    1         0.6798148658E-02      0.1382351297E-01
          0                 4           1             4    7     1      -0.4852582074E-05       4    7    1        -0.2780446985E-03      0.5653775986E-03

    ------------------------------------------------
       NWT REQUIRED            4 OUTER ITERATIONS 
       AND A TOTAL OF          6 INNER ITERATIONS.
    ------------------------------------------------

 NO OUTPUT CONTROL FOR STRESS PERIOD   23   TIME STEP   27
 
 SOLVING FOR HEAD 
                                                   Max.-Head-Change                         Max.-Flux-Residual
  Residual-Control   Outer-Iter.   Inner-Iter.     Column Row Layer    Maximum-Head-Change  Column Row Layer    Maximum-Flux-Residual          L2-NORM 
          0                 1           2             4    7     1       0.1813535762E-01       4    7    1         0.9566081301E+00      0.1946724301E+01
          0                 2           2             4    7     1      -0.1764082637E-02       4    7    1        -0.9566127753E-01      0.1946705655E+00
          0                 3           1             4    7     1       0.1201274213E-03       4    7    1         0.6696287920E-02      0.1362662082E-01
          0                 4           1             4    7     1      -0.4779983876E-05       4    7    1        -0.2738785870E-03      0.5573185723E-03

    ------------------------------------------------
       NWT REQUIRED            4 OUTER ITERATIONS 
       AND A TOTAL OF          6 INNER ITERATIONS.
    ------------------------------------------------

 NO OUTPUT CONTROL FOR STRESS PERIOD   23   TIME STEP   28
 
 SOLVING FOR HEAD 
                                                   Max.-Head-Change                         Max.-Flux-Residual
  Residual-Control   Outer-Iter.   Inner-Iter.     Column Row Layer    Maximum-Head-Change  Column Row Layer    Maximum-Flux-Residual          L2-NORM 
          0                 1           2             4    7     1       0.1786452212E-01       4    7    1         0.9422973586E+00      0.1919253939E+01
          0                 2           2             4    7     1      -0.1737737552E-02       4    7    1        -0.9423018846E-01      0.1919239326E+00
          0                 3           1             4    7     1       0.1183334201E-03       4    7    1         0.6596111748E-02      0.1343450666E-01
          0                 4           1             4    7     1      -0.4708598086E-05       4    7    1        -0.2697813616E-03      0.5494520569E-03

    ------------------------------------------------
       NWT REQUIRED            4 OUTER ITERATIONS 
       AND A TOTAL OF          6 INNER ITERATIONS.
    ------------------------------------------------

 NO OUTPUT CONTROL FOR STRESS PERIOD   23   TIME STEP   29
 
 SOLVING FOR HEAD 
                                                   Max.-Head-Change                         Max.-Flux-Residual
  Residual-Control   Outer-Iter.   Inner-Iter.     Column Row Layer    Maximum-Head-Change  Column Row Layer    Maximum-Flux-Residual          L2-NORM 
          0                 1           2             4    7     1       0.1759824391E-01       4    7    1         0.9282252991E+00      0.1892389159E+01
          0                 2           2             4    7     1      -0.1711835770E-02       4    7    1        -0.9282297083E-01      0.1892376982E+00
          0                 3           1             4    7     1       0.1165696069E-03       4    7    1         0.6497606595E-02      0.1324649394E-01
          0                 4           1             4    7     1      -0.4638414804E-05       4    7    1        -0.2657525047E-03      0.5417816287E-03

    ------------------------------------------------
       NWT REQUIRED            4 OUTER ITERATIONS 
       AND A TOTAL OF          6 INNER ITERATIONS.
    ------------------------------------------------

 NO OUTPUT CONTROL FOR STRESS PERIOD   23   TIME STEP   30



 STREAM LISTING     PERIOD     23   STEP       30

 LAYER ROW COL. STREAM  RCH.  FLOW INTO     FLOW TO   FLOW OUT OF   OVRLND.     DIRECT     STREAM       STREAM     STREAM     STREAM   STREAMBED  STREAMBED
                SEG.NO.  NO.  STRM. RCH.    AQUIFER    STRM. RCH.    RUNOFF     PRECIP       ET          HEAD       DEPTH      WIDTH   CONDCTNC.   GRADIENT

   1    1    1     1     1    1.6500E+01  1.9759E-01   1.6303E+01  0.000E+00  0.000E+00  0.000E+00  1.09409E+03  1.039E+00  1.087E+01  4.893E-02  1.346E+00
   1    2    2     1     2    1.6303E+01  3.0466E-01   1.5998E+01  0.000E+00  0.000E+00  0.000E+00  1.08909E+03  1.034E+00  1.079E+01  7.552E-02  1.345E+00
   1    3    3     1     3    1.5998E+01  2.5853E-01   1.5739E+01  0.000E+00  0.000E+00  0.000E+00  1.08345E+03  1.029E+00  1.070E+01  6.417E-02  1.343E+00
   1    3    4     1     4    1.5739E+01  2.3700E-01   1.5502E+01  0.000E+00  0.000E+00  0.000E+00  1.07843E+03  1.024E+00  1.061E+01  5.890E-02  1.341E+00
   1    4    5     2     1    1.3502E+01  2.9865E-01   1.3204E+01  0.000E+00  0.000E+00  0.000E+00  1.07276E+03  8.289E-01  1.200E+01  7.800E-02  1.276E+00
   1    5    6     2     2    1.3204E+01  2.2914E-01   1.2975E+01  0.000E+00  0.000E+00  0.000E+00  1.06733E+03  8.190E-01  1.200E+01  6.000E-02  1.273E+00
   1    6    6     2     3    1.2975E+01  2.2862E-01   1.2746E+01  0.000E+00  0.000E+00  0.000E+00  1.06260E+03  8.104E-01  1.200E+01  6.000E-02  1.270E+00
   1    7    6     2     4    1.2746E+01  2.2810E-01   1.2518E+01  0.000E+00  0.000E+00  0.000E+00  1.05788E+03  8.017E-01  1.200E+01  6.000E-02  1.267E+00
   1    8    6     2     5    1.2518E+01  2.2758E-01   1.2290E+01  0.000E+00  0.000E+00  0.000E+00  1.05315E+03  7.930E-01  1.200E+01  6.000E-02  1.264E+00
   1    3    5     3     1    2.0000E+00  2.8252E-01   1.7175E+00  0.000E+00  0.000E+00  0.000E+00  1.07555E+03  1.909E+00  9.636E+00  7.227E-02  1.955E+00
   1    3    6     3     2    1.7175E+00  2.4905E-01   1.4684E+00  0.000E+00  0.000E+00  0.000E+00  1.07264E+03  1.727E+00  8.909E+00  6.682E-02  1.864E+00
   1    3    7     3     3    1.4684E+00  1.9718E-01   1.2712E+00  0.000E+00  0.000E+00  0.000E+00  1.06987E+03  1.555E+00  8.218E+00  5.547E-02  1.777E+00
   1    4    8     3     4    1.2712E+00  2.2567E-01   1.0456E+00  0.000E+00  0.000E+00  0.000E+00  1.06682E+03  1.364E+00  7.455E+00  6.709E-02  1.682E+00
   1    5    8     3     5    1.0456E+00  1.5790E-01   8.8768E-01  0.000E+00  0.000E+00  0.000E+00  1.06362E+03  1.164E+00  6.655E+00  4.991E-02  1.582E+00
   1    6    8     3     6    8.8768E-01  5.5980E-02   8.3170E-01  0.000E+00  0.000E+00  0.000E+00  1.06158E+03  1.036E+00  6.145E+00  1.844E-02  1.518E+00
   1    5   10     4     1    1.0000E+01  9.0919E-02   9.9091E+00  0.000E+00  0.000E+00  0.000E+00  1.07836E+03  6.368E-01  1.000E+01  2.500E-02  1.212E+00
   1    5    9     4     2    9.9091E+00  1.8158E-01   9.7275E+00  0.000E+00  0.000E+00  0.000E+00  1.07154E+03  6.315E-01  1.000E+01  5.000E-02  1.211E+00
   1    6    8     4     3    9.7275E+00  1.2689E-01   9.6006E+00  0.000E+00  0.000E+00  0.000E+00  1.06381E+03  6.256E-01  1.000E+01  3.500E-02  1.209E+00
   1    6    8     5     1    1.0432E+01  2.2686E-01   1.0205E+01  0.000E+00  0.000E+00  0.000E+00  1.05868E+03  6.790E-01  1.542E+01  6.166E-02  1.226E+00
   1    7    7     5     2    1.0205E+01  2.7894E-01   9.9265E+00  0.000E+00  0.000E+00  0.000E+00  1.05417E+03  6.732E-01  1.519E+01  7.594E-02  1.224E+00
   1    8    7     5     3    9.9265E+00  1.9221E-01   9.7343E+00  0.000E+00  0.000E+00  0.000E+00  1.04992E+03  6.676E-01  1.497E+01  5.241E-02  1.223E+00
   1    8    6     5     4    9.7343E+00  1.3577E-01   9.5985E+00  0.000E+00  0.000E+00  0.000E+00  1.04691E+03  6.637E-01  1.482E+01  3.706E-02  1.221E+00
   1    9    6     6     1    2.1889E+01  2.4742E-01   2.1641E+01  0.000E+00  0.000E+00  0.000E+00  1.04385E+03  1.124E+00  1.200E+01  6.000E-02  1.375E+00
   1   10    7     6     2    2.1641E+01  2.4696E-01   2.1395E+01  0.000E+00  0.000E+00  0.000E+00  1.03930E+03  1.116E+00  1.200E+01  6.000E-02  1.372E+00
   1   11    7     6     3    2.1395E+01  2.4650E-01   2.1148E+01  0.000E+00  0.000E+00  0.000E+00  1.03474E+03  1.108E+00  1.200E+01  6.000E-02  1.369E+00
   1   12    7     6     4    2.1148E+01  2.4603E-01   2.0902E+01  0.000E+00  0.000E+00  0.000E+00  1.03019E+03  1.101E+00  1.200E+01  6.000E-02  1.367E+00
   1   13    7     6     5    2.0902E+01 -2.0289E-02   2.0922E+01  0.000E+00  0.000E+00  0.000E+00  1.02701E+03  1.097E+00  1.200E+01  2.400E-01 -2.818E-02
   1   14    9     7     1    1.5000E+02  1.3366E+00   1.4866E+02  0.000E+00  0.000E+00  0.000E+00  1.03987E+03  2.288E+00  5.529E+01  5.593E-01  7.966E-01
   1   13    8     7     2    1.4866E+02  1.8300E+00   1.4683E+02  0.000E+00  0.000E+00  0.000E+00  1.03478E+03  2.279E+00  5.526E+01  6.148E-01  9.922E-01
   1   13    7     7     3    1.4683E+02  1.4516E+00   1.4538E+02  0.000E+00  0.000E+00  0.000E+00  1.02969E+03  2.271E+00  5.522E+01  5.585E-01  8.664E-01
   1   13    6     8     1    1.6630E+02  8.7620E-01   1.6543E+02  0.000E+00  0.000E+00  0.000E+00  1.02480E+03  2.925E+00  4.241E+01  4.322E-01  6.758E-01
   1   13    5     8     2    1.6543E+02  1.3236E-01   1.6530E+02  0.000E+00  0.000E+00  0.000E+00  1.01855E+03  2.922E+00  4.237E+01  4.317E-01  1.022E-01
   1   13    4     8     3    1.6530E+02 -2.5826E+00   1.6788E+02  0.000E+00  0.000E+00  0.000E+00  1.01230E+03  2.930E+00  4.248E+01  4.329E+00 -1.989E-01
   1   13    3     8     4    1.6788E+02 -3.7037E+00   1.7158E+02  0.000E+00  0.000E+00  0.000E+00  1.00608E+03  2.950E+00  4.278E+01  4.360E+00 -2.832E-01
   1   13    2     8     5    1.7158E+02 -2.5680E+00   1.7415E+02  0.000E+00  0.000E+00  0.000E+00  9.99846E+02  2.971E+00  4.308E+01  4.390E+00 -1.950E-01
   1   13    1     8     6    1.7415E+02 -1.9545E+00   1.7610E+02  0.000E+00  0.000E+00  0.000E+00  9.94860E+02  2.985E+00  4.329E+01  2.647E+00 -2.462E-01
   1    8    6     9     1    0.0000E+00  0.0000E+00   0.0000E+00  0.000E+00  0.000E+00  0.000E+00  1.07875E+03  0.000E+00  4.000E+00  0.000E+00  1.000E+00
   1    8    5     9     2    0.0000E+00  0.0000E+00   0.0000E+00  0.000E+00  0.000E+00  0.000E+00  1.07825E+03  0.000E+00  4.000E+00  0.000E+00  1.000E+00





UNSATURATED ZONE PACKAGE VOLUMETRIC BUDGET FOR  TIME STEP    30 STRESS PERIOD   23
  ------------------------------------------------------------------------------



     CUMULATIVE VOLUMES      L**3       RATES FOR THIS TIME STEP      L**3/T
     ------------------                 ------------------------

           IN:                                      IN:
           ---                                      ---
        INFILTRATION =  1056185759.5276          INFILTRATION =           4.4075

          OUT:                                     OUT:
          ----                                     ----
              UZF ET =   994917424.8816                UZF ET =           3.7803
        UZF RECHARGE =      654072.9065          UZF RECHARGE =       0.0000E+00

            IN - OUT =    60614261.7395              IN - OUT =           0.6272

          STORAGE:                                 STORAGE:
          --------                                 --------
      STORAGE CHANGE =    60614846.8558        STORAGE CHANGE =           0.6272

 PERCENT DISCREPANCY IS DIFFERENCE BETWEEN IN-OUT MINUS CHANGE IN STORAGE
 DIVIDED BY THE AVERAGE OF IN AND OUT TIMES 100

 PERCENT DISCREPANCY =          -0.00     PERCENT DISCREPANCY =           0.00






1
  VOLUMETRIC BUDGET FOR ENTIRE MODEL AT END OF TIME STEP   30, STRESS PERIOD  23
  ------------------------------------------------------------------------------

     CUMULATIVE VOLUMES      L**3       RATES FOR THIS TIME STEP      L**3/T
     ------------------                 ------------------------

           IN:                                      IN:
           ---                                      ---
               AG WELLS  =   176029504.0000                 AG WELLS  =           0.0000
      DIVERSION SEGMENTS =   625052736.0000        DIVERSION SEGMENTS =           0.0000
           GW IRRIGATION =           0.0000             GW IRRIGATION =           0.0000
           SW IRRIGATION =           0.0000             SW IRRIGATION =           0.0000
        SYSTEM LOSSES GW =           0.0000          SYSTEM LOSSES GW =           0.0000
        SYSTEM LOSSES SW =           0.0000          SYSTEM LOSSES SW =           0.0000

                TOTAL IN =   801082240.0000                  TOTAL IN =           0.0000

          OUT:                                     OUT:
          ----                                     ----
               AG WELLS  =           0.0000                 AG WELLS  =           0.0000
      DIVERSION SEGMENTS =           0.0000        DIVERSION SEGMENTS =           0.0000
           GW IRRIGATION =   176029504.0000             GW IRRIGATION =           0.0000
           SW IRRIGATION =   625066496.0000             SW IRRIGATION =           0.0000
        SYSTEM LOSSES GW =           0.0000          SYSTEM LOSSES GW =           0.0000
        SYSTEM LOSSES SW =           0.0000          SYSTEM LOSSES SW =           0.0000

               TOTAL OUT =   801096000.0000                 TOTAL OUT =           0.0000

                IN - OUT =      -13760.0000                  IN - OUT =           0.0000

     PERCENT DISCREPANCY =          -0.00         PERCENT DISCREPANCY =           0.00



1
  VOLUMETRIC BUDGET FOR ENTIRE MODEL AT END OF TIME STEP   30, STRESS PERIOD  23
  ------------------------------------------------------------------------------

     CUMULATIVE VOLUMES      L**3       RATES FOR THIS TIME STEP      L**3/T
     ------------------                 ------------------------

           IN:                                      IN:
           ---                                      ---
             STORAGE     =   267293872.0000               STORAGE     =           4.6494
       CONSTANT HEAD     =           0.0000         CONSTANT HEAD     =           0.0000
     HEAD DEP BOUNDS     =    16559500.0000       HEAD DEP BOUNDS     =           0.2858
      STREAM LEAKAGE     =   690060096.0000        STREAM LEAKAGE     =          11.2250
        UZF RECHARGE     =      654073.0000          UZF RECHARGE     =           0.0000
               GW ET     =           0.0000                 GW ET     =           0.0000
     SURFACE LEAKAGE     =           0.0000       SURFACE LEAKAGE     =           0.0000
           AG WELLS      =           0.0000             AG WELLS      =           0.0000

                TOTAL IN =   974567552.0000                  TOTAL IN =          16.1602

          OUT:                                     OUT:
          ----                                     ----
             STORAGE     =   148802192.0000               STORAGE     =           5.0423
       CONSTANT HEAD     =           0.0000         CONSTANT HEAD     =           0.0000
     HEAD DEP BOUNDS     =    16844824.0000       HEAD DEP BOUNDS     =           0.2888
      STREAM LEAKAGE     =   630666176.0000        STREAM LEAKAGE     =          10.8291
        UZF RECHARGE     =           0.0000          UZF RECHARGE     =           0.0000
               GW ET     =     2231806.7500                 GW ET     =           0.0000
     SURFACE LEAKAGE     =           0.0000       SURFACE LEAKAGE     =           0.0000
           AG WELLS      =   176029504.0000             AG WELLS      =           0.0000

               TOTAL OUT =   974574528.0000                 TOTAL OUT =          16.1602

                IN - OUT =       -6976.0000                  IN - OUT =       5.7220E-06

     PERCENT DISCREPANCY =          -0.00         PERCENT DISCREPANCY =           0.00






         TIME SUMMARY AT END OF TIME STEP   30 IN STRESS PERIOD   23
                    SECONDS     MINUTES      HOURS       DAYS        YEARS
                    -----------------------------------------------------------
   TIME STEP LENGTH  87667.      1461.1      24.352      1.0147     2.77799E-03
 STRESS PERIOD TIME 2.63000E+06  43833.      730.56      30.440     8.33397E-02
         TOTAL TIME 5.79467E+07 9.65778E+05  16096.      670.68      1.8362    
1
1
                            STRESS PERIOD NO.   24, LENGTH =   2630000.    
                            -----------------------------------------------

                              NUMBER OF TIME STEPS =    30

                               MULTIPLIER FOR DELT =     1.000

                            INITIAL TIME STEP SIZE =   87666.66    

 REUSING NON-PARAMETER GHB CELLS FROM LAST STRESS PERIOD

      2 GHB CELLS

 REUSING STREAM SEGMENT DATA FROM LAST STRESS PERIOD



            AREAL INFILTRATION RATE
 READING ON UNIT   19 WITH FORMAT: (10F4.0)            

            1           2           3           4           5           6           7           8           9          10
 ........................................................................................................................
   1   1.2000E-09   0.000       0.000       0.000       0.000       0.000       0.000       0.000       0.000       0.000    
   2   2.1000E-09  2.0000E-09  8.0000E-10  8.5000E-09   0.000       0.000       0.000       0.000       0.000       0.000    
   3   5.0000E-10  1.1000E-09  8.8000E-09  5.5000E-09   0.000       0.000       0.000       0.000       0.000       0.000    
   4   8.5000E-09  1.1000E-09  1.1000E-09  1.1000E-09  2.0000E-09   0.000       0.000       0.000       0.000       0.000    
   5   8.5000E-09  1.1000E-09  1.1000E-09  1.1000E-09  1.1000E-09   0.000       0.000       0.000       0.000       0.000    
   6   8.5000E-09  5.2000E-09  2.1000E-09  1.1000E-09  1.5000E-09   0.000       0.000       0.000       0.000       0.000    
   7   8.5000E-09  5.2000E-09  2.1000E-09  1.2000E-09  2.0000E-09   0.000       0.000       0.000       0.000       0.000    
   8   5.0000E-10  5.2000E-09  2.1000E-09  1.2000E-09  5.0000E-09   0.000       0.000       0.000       0.000       0.000    
   9   5.0000E-10  5.2000E-09  2.1000E-09  1.2000E-09  5.0000E-09   0.000       0.000       0.000       0.000       0.000    
  10   5.0000E-10  5.2000E-09  2.1000E-09  1.2000E-09  5.8000E-09   0.000       0.000       0.000       0.000       0.000    
  11   1.0000E-10  1.1000E-09  1.1000E-09  1.2000E-09  5.0000E-09   0.000       0.000       0.000       0.000       0.000    
  12   1.1000E-09  1.1000E-09  1.1000E-09  1.1000E-09  2.0000E-09   0.000       0.000       0.000       0.000       0.000    
  13   1.1000E-09  2.2000E-09  2.2000E-09  2.1000E-09  1.0000E-09   0.000       0.000       0.000       0.000       0.000    
  14   2.0000E-10  5.5000E-09  5.5000E-09  5.2000E-09  1.0000E-09   0.000       0.000       0.000       0.000       0.000    
  15    0.000      8.8000E-09  8.8000E-09   0.000       0.000       0.000       0.000       0.000       0.000       0.000    

                  ET RATE =  5.000000E-10

 USING ET EXTINCTION DEPTH FROM PREVIOUS STRESS PERIOD. CURRENT PERIOD IS:      24

 USING EXTINCTION WATER CONTENT FROM PREVIOUS STRESS PERIOD. CURRENT PERIOD IS:      24

 USING AIR ENTRY PRESSURE FROM PREVIOUS STRESS PERIOD. CURRENT PERIOD IS:      24

 USING ROOT PRESSURE HEAD FROM PREVIOUS STRESS PERIOD. CURRENT PERIOD IS:      24

 USING ROOT ACTIVITY FROM PREVIOUS STRESS PERIOD. CURRENT PERIOD IS:      24

 PROCESSING AG STRESS PERIOD DATA

 READING AG STRESS PERIOD DATA

 READING IRRIGATION SEGMENT

 READING IRRIGATION WELL

 READING SUPPLEMENTAL WELL

 END PROCESSING AG STRESS PERIOD DATA OPTIONS
 
 SOLVING FOR HEAD 
                                                   Max.-Head-Change                         Max.-Flux-Residual
  Residual-Control   Outer-Iter.   Inner-Iter.     Column Row Layer    Maximum-Head-Change  Column Row Layer    Maximum-Flux-Residual          L2-NORM 
          0                 1           2             4    7     1       0.1733660631E-01       4    7    1         0.9143969071E+00      0.1866474942E+01
          0                 2           2             4    7     1      -0.1686385397E-02       4    7    1        -0.9144012018E-01      0.1866472811E+00
          0                 3           1             4    7     1       0.1148365324E-03       4    7    1         0.6400807111E-02      0.1306525179E-01
          0                 4           1             4    7     1      -0.4569454062E-05       4    7    1        -0.2617933937E-03      0.5343753878E-03

    ------------------------------------------------
       NWT REQUIRED            4 OUTER ITERATIONS 
       AND A TOTAL OF          6 INNER ITERATIONS.
    ------------------------------------------------

 NO OUTPUT CONTROL FOR STRESS PERIOD   24   TIME STEP    1
 
 SOLVING FOR HEAD 
                                                   Max.-Head-Change                         Max.-Flux-Residual
  Residual-Control   Outer-Iter.   Inner-Iter.     Column Row Layer    Maximum-Head-Change  Column Row Layer    Maximum-Flux-Residual          L2-NORM 
          0                 1           2             4    7     1       0.1707927479E-01       4    7    1         0.9007943666E+00      0.1841514464E+01
          0                 2           2             4    7     1      -0.1661353891E-02       4    7    1        -0.9007985491E-01      0.1841517658E+00
          0                 3           1             4    7     1       0.1131319813E-03       4    7    1         0.6305588612E-02      0.1289062876E-01
          0                 4           1             4    7     1      -0.4501628364E-05       4    7    1        -0.2578989524E-03      0.5272327616E-03

    ------------------------------------------------
       NWT REQUIRED            4 OUTER ITERATIONS 
       AND A TOTAL OF          6 INNER ITERATIONS.
    ------------------------------------------------

 NO OUTPUT CONTROL FOR STRESS PERIOD   24   TIME STEP    2
 
 SOLVING FOR HEAD 
                                                   Max.-Head-Change                         Max.-Flux-Residual
  Residual-Control   Outer-Iter.   Inner-Iter.     Column Row Layer    Maximum-Head-Change  Column Row Layer    Maximum-Flux-Residual          L2-NORM 
          0                 1           2             4    7     1       0.1682633244E-01       4    7    1         0.8874224686E+00      0.1816371585E+01
          0                 2           2             4    7     1      -0.1636749335E-02       4    7    1        -0.8874265412E-01      0.1816374795E+00
          0                 3           1             4    7     1       0.1114565035E-03       4    7    1         0.6211984605E-02      0.1271463119E-01
          0                 4           1             4    7     1      -0.4434959467E-05       4    7    1        -0.2540705382E-03      0.5200329813E-03

    ------------------------------------------------
       NWT REQUIRED            4 OUTER ITERATIONS 
       AND A TOTAL OF          6 INNER ITERATIONS.
    ------------------------------------------------

 NO OUTPUT CONTROL FOR STRESS PERIOD   24   TIME STEP    3
 
 SOLVING FOR HEAD 
                                                   Max.-Head-Change                         Max.-Flux-Residual
  Residual-Control   Outer-Iter.   Inner-Iter.     Column Row Layer    Maximum-Head-Change  Column Row Layer    Maximum-Flux-Residual          L2-NORM 
          0                 1           2             4    7     1       0.1657786413E-01       4    7    1         0.8742855220E+00      0.1791778288E+01
          0                 2           2             4    7     1      -0.1612579985E-02       4    7    1        -0.8742894876E-01      0.1791780517E+00
          0                 3           1             4    7     1       0.1098106622E-03       4    7    1         0.6120025297E-02      0.1254237845E-01
          0                 4           1             4    7     1      -0.4369470168E-05       4    7    1        -0.2503093997E-03      0.5129775799E-03

    ------------------------------------------------
       NWT REQUIRED            4 OUTER ITERATIONS 
       AND A TOTAL OF          6 INNER ITERATIONS.
    ------------------------------------------------

 NO OUTPUT CONTROL FOR STRESS PERIOD   24   TIME STEP    4
 
 SOLVING FOR HEAD 
                                                   Max.-Head-Change                         Max.-Flux-Residual
  Residual-Control   Outer-Iter.   Inner-Iter.     Column Row Layer    Maximum-Head-Change  Column Row Layer    Maximum-Flux-Residual          L2-NORM 
          0                 1           2             4    7     1       0.1633366605E-01       4    7    1         0.8613731688E+00      0.1767702780E+01
          0                 2           2             4    7     1      -0.1588826015E-02       4    7    1        -0.8613770294E-01      0.1767705776E+00
          0                 3           1             4    7     1       0.1081931065E-03       4    7    1         0.6029638158E-02      0.1237393910E-01
          0                 4           1             4    7     1      -0.4305106125E-05       4    7    1        -0.2466125666E-03      0.5060878448E-03

    ------------------------------------------------
       NWT REQUIRED            4 OUTER ITERATIONS 
       AND A TOTAL OF          6 INNER ITERATIONS.
    ------------------------------------------------

 NO OUTPUT CONTROL FOR STRESS PERIOD   24   TIME STEP    5
 
 SOLVING FOR HEAD 
                                                   Max.-Head-Change                         Max.-Flux-Residual
  Residual-Control   Outer-Iter.   Inner-Iter.     Column Row Layer    Maximum-Head-Change  Column Row Layer    Maximum-Flux-Residual          L2-NORM 
          0                 1           2             4    7     1       0.1609354263E-01       4    7    1         0.8486748405E+00      0.1744122066E+01
          0                 2           2             4    7     1      -0.1565468403E-02       4    7    1        -0.8486785984E-01      0.1744125018E+00
          0                 3           1             4    7     1       0.1066025410E-03       4    7    1         0.5940749185E-02      0.1220888086E-01
          0                 4           1             4    7     1      -0.4241815648E-05       4    7    1        -0.2429769897E-03      0.4993444264E-03

    ------------------------------------------------
       NWT REQUIRED            4 OUTER ITERATIONS 
       AND A TOTAL OF          6 INNER ITERATIONS.
    ------------------------------------------------

 NO OUTPUT CONTROL FOR STRESS PERIOD   24   TIME STEP    6
 
 SOLVING FOR HEAD 
                                                   Max.-Head-Change                         Max.-Flux-Residual
  Residual-Control   Outer-Iter.   Inner-Iter.     Column Row Layer    Maximum-Head-Change  Column Row Layer    Maximum-Flux-Residual          L2-NORM 
          0                 1           2             4    7     1       0.1585785009E-01       4    7    1         0.8362099183E+00      0.1721041345E+01
          0                 2           2             4    7     1      -0.1542541798E-02       4    7    1        -0.8362135763E-01      0.1721044167E+00
          0                 3           1             4    7     1       0.1050413260E-03       4    7    1         0.5853494095E-02      0.1204731133E-01
          0                 4           1             4    7     1      -0.4179693946E-05       4    7    1        -0.2394082671E-03      0.4927349108E-03

    ------------------------------------------------
       NWT REQUIRED            4 OUTER ITERATIONS 
       AND A TOTAL OF          6 INNER ITERATIONS.
    ------------------------------------------------

 NO OUTPUT CONTROL FOR STRESS PERIOD   24   TIME STEP    7
 
 SOLVING FOR HEAD 
                                                   Max.-Head-Change                         Max.-Flux-Residual
  Residual-Control   Outer-Iter.   Inner-Iter.     Column Row Layer    Maximum-Head-Change  Column Row Layer    Maximum-Flux-Residual          L2-NORM 
          0                 1           2             4    7     1       0.1562623958E-01       4    7    1         0.8239599704E+00      0.1698431500E+01
          0                 2           2             4    7     1      -0.1520012266E-02       4    7    1        -0.8239635309E-01      0.1698434269E+00
          0                 3           1             4    7     1       0.1035071497E-03       4    7    1         0.5767743841E-02      0.1188904471E-01
          0                 4           1             4    7     1      -0.4118647536E-05       4    7    1        -0.2359010700E-03      0.4878204498E-03

    ------------------------------------------------
       NWT REQUIRED            4 OUTER ITERATIONS 
       AND A TOTAL OF          6 INNER ITERATIONS.
    ------------------------------------------------

 NO OUTPUT CONTROL FOR STRESS PERIOD   24   TIME STEP    8
 
 SOLVING FOR HEAD 
                                                   Max.-Head-Change                         Max.-Flux-Residual
  Residual-Control   Outer-Iter.   Inner-Iter.     Column Row Layer    Maximum-Head-Change  Column Row Layer    Maximum-Flux-Residual          L2-NORM 
          0                 1           2             4    7     1       0.1539891933E-01       4    7    1         0.8119364315E+00      0.1676294212E+01
          0                 2           2             4    7     1      -0.1497900064E-02       4    7    1        -0.8119398968E-01      0.1676296855E+00
          0                 3           1             4    7     1       0.1020013922E-03       4    7    1         0.5683578456E-02      0.1173407980E-01
          0                 4           1             4    7     1      -0.4058731909E-05       4    7    1        -0.2324586962E-03      0.4799262010E-03

    ------------------------------------------------
       NWT REQUIRED            4 OUTER ITERATIONS 
       AND A TOTAL OF          6 INNER ITERATIONS.
    ------------------------------------------------

 NO OUTPUT CONTROL FOR STRESS PERIOD   24   TIME STEP    9
 
 SOLVING FOR HEAD 
                                                   Max.-Head-Change                         Max.-Flux-Residual
  Residual-Control   Outer-Iter.   Inner-Iter.     Column Row Layer    Maximum-Head-Change  Column Row Layer    Maximum-Flux-Residual          L2-NORM 
          0                 1           2             4    7     1       0.1517526863E-01       4    7    1         0.8001058134E+00      0.1654585158E+01
          0                 2           2             4    7     1      -0.1476144812E-02       4    7    1        -0.8001091857E-01      0.1654587706E+00
          0                 3           1             4    7     1       0.1005199416E-03       4    7    1         0.5600763533E-02      0.1158211982E-01
          0                 4           1             4    7     1      -0.3999783585E-05       4    7    1        -0.2290715561E-03      0.4737158639E-03

    ------------------------------------------------
       NWT REQUIRED            4 OUTER ITERATIONS 
       AND A TOTAL OF          6 INNER ITERATIONS.
    ------------------------------------------------

 NO OUTPUT CONTROL FOR STRESS PERIOD   24   TIME STEP   10
 
 SOLVING FOR HEAD 
                                                   Max.-Head-Change                         Max.-Flux-Residual
  Residual-Control   Outer-Iter.   Inner-Iter.     Column Row Layer    Maximum-Head-Change  Column Row Layer    Maximum-Flux-Residual          L2-NORM 
          0                 1           2             4    7     1       0.1495578359E-01       4    7    1         0.7884949804E+00      0.1633331262E+01
          0                 2           2             4    7     1      -0.1454794769E-02       4    7    1        -0.7884982622E-01      0.1633333672E+00
          0                 3           1             4    7     1       0.9906608415E-04       4    7    1         0.5519487109E-02      0.1143333639E-01

    ------------------------------------------------
       NWT REQUIRED            3 OUTER ITERATIONS 
       AND A TOTAL OF          5 INNER ITERATIONS.
    ------------------------------------------------

 NO OUTPUT CONTROL FOR STRESS PERIOD   24   TIME STEP   11
 
 SOLVING FOR HEAD 
                                                   Max.-Head-Change                         Max.-Flux-Residual
  Residual-Control   Outer-Iter.   Inner-Iter.     Column Row Layer    Maximum-Head-Change  Column Row Layer    Maximum-Flux-Residual          L2-NORM 
          0                 1           2             4    7     1       0.1474031308E-01       4    7    1         0.7770963489E+00      0.1612497285E+01
          0                 2           2             4    7     1      -0.1433835233E-02       4    7    1        -0.7770995425E-01      0.1612499659E+00
          0                 3           1             4    7     1       0.9763881865E-04       4    7    1         0.5439696118E-02      0.1128758885E-01

    ------------------------------------------------
       NWT REQUIRED            3 OUTER ITERATIONS 
       AND A TOTAL OF          5 INNER ITERATIONS.
    ------------------------------------------------

 NO OUTPUT CONTROL FOR STRESS PERIOD   24   TIME STEP   12
 
 SOLVING FOR HEAD 
                                                   Max.-Head-Change                         Max.-Flux-Residual
  Residual-Control   Outer-Iter.   Inner-Iter.     Column Row Layer    Maximum-Head-Change  Column Row Layer    Maximum-Flux-Residual          L2-NORM 
          0                 1           2             4    7     1       0.1452858434E-01       4    7    1         0.7658949513E+00      0.1592070646E+01
          0                 2           2             4    7     1      -0.1413239673E-02       4    7    1        -0.7658980590E-01      0.1592072898E+00
          0                 3           1             4    7     1       0.9623633852E-04       4    7    1         0.5361285789E-02      0.1114451572E-01

    ------------------------------------------------
       NWT REQUIRED            3 OUTER ITERATIONS 
       AND A TOTAL OF          5 INNER ITERATIONS.
    ------------------------------------------------

 NO OUTPUT CONTROL FOR STRESS PERIOD   24   TIME STEP   13
 
 SOLVING FOR HEAD 
                                                   Max.-Head-Change                         Max.-Flux-Residual
  Residual-Control   Outer-Iter.   Inner-Iter.     Column Row Layer    Maximum-Head-Change  Column Row Layer    Maximum-Flux-Residual          L2-NORM 
          0                 1           2             4    7     1       0.1432053226E-01       4    7    1         0.7548875580E+00      0.1572048341E+01
          0                 2           2             4    7     1      -0.1393001756E-02       4    7    1        -0.7548905820E-01      0.1572050519E+00
          0                 3           1             4    7     1       0.9485821254E-04       4    7    1         0.5284233501E-02      0.1100435841E-01

    ------------------------------------------------
       NWT REQUIRED            3 OUTER ITERATIONS 
       AND A TOTAL OF          5 INNER ITERATIONS.
    ------------------------------------------------

 NO OUTPUT CONTROL FOR STRESS PERIOD   24   TIME STEP   14
 
 SOLVING FOR HEAD 
                                                   Max.-Head-Change                         Max.-Flux-Residual
  Residual-Control   Outer-Iter.   Inner-Iter.     Column Row Layer    Maximum-Head-Change  Column Row Layer    Maximum-Flux-Residual          L2-NORM 
          0                 1           2             4    7     1       0.1411636532E-01       4    7    1         0.7440855580E+00      0.1552411928E+01
          0                 2           2             4    7     1      -0.1373141760E-02       4    7    1        -0.7440885008E-01      0.1552413973E+00
          0                 3           1             4    7     1       0.9350582218E-04       4    7    1         0.5208618989E-02      0.1086690229E-01

    ------------------------------------------------
       NWT REQUIRED            3 OUTER ITERATIONS 
       AND A TOTAL OF          5 INNER ITERATIONS.
    ------------------------------------------------

 NO OUTPUT CONTROL FOR STRESS PERIOD   24   TIME STEP   15
 
 SOLVING FOR HEAD 
                                                   Max.-Head-Change                         Max.-Flux-Residual
  Residual-Control   Outer-Iter.   Inner-Iter.     Column Row Layer    Maximum-Head-Change  Column Row Layer    Maximum-Flux-Residual          L2-NORM 
          0                 1           2             4    7     1       0.1391573576E-01       4    7    1         0.7334702319E+00      0.1533158923E+01
          0                 2           2             4    7     1      -0.1353625857E-02       4    7    1        -0.7334730952E-01      0.1533159466E+00
          0                 3           1             4    7     1       0.9217686247E-04       4    7    1         0.5134311182E-02      0.1073212248E-01

    ------------------------------------------------
       NWT REQUIRED            3 OUTER ITERATIONS 
       AND A TOTAL OF          5 INNER ITERATIONS.
    ------------------------------------------------

 NO OUTPUT CONTROL FOR STRESS PERIOD   24   TIME STEP   16
 
 SOLVING FOR HEAD 
                                                   Max.-Head-Change                         Max.-Flux-Residual
  Residual-Control   Outer-Iter.   Inner-Iter.     Column Row Layer    Maximum-Head-Change  Column Row Layer    Maximum-Flux-Residual          L2-NORM 
          0                 1           2             4    7     1       0.1371857711E-01       4    7    1         0.7230383127E+00      0.1514271693E+01
          0                 2           2             4    7     1      -0.1334447582E-02       4    7    1        -0.7230410986E-01      0.1514273534E+00
          0                 3           1             4    7     1       0.9087089391E-04       4    7    1         0.5061287238E-02      0.1059991294E-01

    ------------------------------------------------
       NWT REQUIRED            3 OUTER ITERATIONS 
       AND A TOTAL OF          5 INNER ITERATIONS.
    ------------------------------------------------

 NO OUTPUT CONTROL FOR STRESS PERIOD   24   TIME STEP   17
 
 SOLVING FOR HEAD 
                                                   Max.-Head-Change                         Max.-Flux-Residual
  Residual-Control   Outer-Iter.   Inner-Iter.     Column Row Layer    Maximum-Head-Change  Column Row Layer    Maximum-Flux-Residual          L2-NORM 
          0                 1           2             4    7     1       0.1352537581E-01       4    7    1         0.7128158862E+00      0.1495761114E+01
          0                 2           2             4    7     1      -0.1315654254E-02       4    7    1        -0.7128185973E-01      0.1495762829E+00
          0                 3           1             4    7     1       0.8959113929E-04       4    7    1         0.4989729778E-02      0.1047034077E-01

    ------------------------------------------------
       NWT REQUIRED            3 OUTER ITERATIONS 
       AND A TOTAL OF          5 INNER ITERATIONS.
    ------------------------------------------------

 NO OUTPUT CONTROL FOR STRESS PERIOD   24   TIME STEP   18
 
 SOLVING FOR HEAD 
                                                   Max.-Head-Change                         Max.-Flux-Residual
  Residual-Control   Outer-Iter.   Inner-Iter.     Column Row Layer    Maximum-Head-Change  Column Row Layer    Maximum-Flux-Residual          L2-NORM 
          0                 1           2             4    7     1       0.1333522676E-01       4    7    1         0.7027543444E+00      0.1477583055E+01
          0                 2           2             4    7     1      -0.1297157828E-02       4    7    1        -0.7027569824E-01      0.1477584688E+00
          0                 3           1             4    7     1       0.8833160200E-04       4    7    1         0.4919298506E-02      0.1034309374E-01

    ------------------------------------------------
       NWT REQUIRED            3 OUTER ITERATIONS 
       AND A TOTAL OF          5 INNER ITERATIONS.
    ------------------------------------------------

 NO OUTPUT CONTROL FOR STRESS PERIOD   24   TIME STEP   19
 
 SOLVING FOR HEAD 
                                                   Max.-Head-Change                         Max.-Flux-Residual
  Residual-Control   Outer-Iter.   Inner-Iter.     Column Row Layer    Maximum-Head-Change  Column Row Layer    Maximum-Flux-Residual          L2-NORM 
          0                 1           2             4    7     1       0.1314889174E-01       4    7    1         0.6928953557E+00      0.1459761428E+01
          0                 2           2             4    7     1      -0.1279032406E-02       4    7    1        -0.6928979228E-01      0.1459762951E+00
          0                 3           1             4    7     1       0.8709732912E-04       4    7    1         0.4850285126E-02      0.1021833755E-01

    ------------------------------------------------
       NWT REQUIRED            3 OUTER ITERATIONS 
       AND A TOTAL OF          5 INNER ITERATIONS.
    ------------------------------------------------

 NO OUTPUT CONTROL FOR STRESS PERIOD   24   TIME STEP   20
 
 SOLVING FOR HEAD 
                                                   Max.-Head-Change                         Max.-Flux-Residual
  Residual-Control   Outer-Iter.   Inner-Iter.     Column Row Layer    Maximum-Head-Change  Column Row Layer    Maximum-Flux-Residual          L2-NORM 
          0                 1           2             4    7     1       0.1296574620E-01       4    7    1         0.6832045853E+00      0.1442268573E+01
          0                 2           2             4    7     1      -0.1261217238E-02       4    7    1        -0.6832070835E-01      0.1442269969E+00
          0                 3           1             4    7     1       0.8588418334E-04       4    7    1         0.4782449291E-02      0.1009588806E-01

    ------------------------------------------------
       NWT REQUIRED            3 OUTER ITERATIONS 
       AND A TOTAL OF          5 INNER ITERATIONS.
    ------------------------------------------------

 NO OUTPUT CONTROL FOR STRESS PERIOD   24   TIME STEP   21
 
 SOLVING FOR HEAD 
                                                   Max.-Head-Change                         Max.-Flux-Residual
  Residual-Control   Outer-Iter.   Inner-Iter.     Column Row Layer    Maximum-Head-Change  Column Row Layer    Maximum-Flux-Residual          L2-NORM 
          0                 1           2             4    7     1       0.1278573417E-01       4    7    1         0.6736791841E+00      0.1425103365E+01
          0                 2           2             4    7     1      -0.1243706876E-02       4    7    1        -0.6736816150E-01      0.1425104565E+00
          0                 3           1             4    7     1       0.8469179311E-04       4    7    1         0.4715771032E-02      0.9975729309E-02

    ------------------------------------------------
       NWT REQUIRED            3 OUTER ITERATIONS 
       AND A TOTAL OF          5 INNER ITERATIONS.
    ------------------------------------------------

 NO OUTPUT CONTROL FOR STRESS PERIOD   24   TIME STEP   22
 
 SOLVING FOR HEAD 
                                                   Max.-Head-Change                         Max.-Flux-Residual
  Residual-Control   Outer-Iter.   Inner-Iter.     Column Row Layer    Maximum-Head-Change  Column Row Layer    Maximum-Flux-Residual          L2-NORM 
          0                 1           2             4    7     1       0.1260933915E-01       4    7    1         0.6643457860E+00      0.1408265827E+01
          0                 2           2             4    7     1      -0.1226548355E-02       4    7    1        -0.6643481519E-01      0.1408266999E+00
          0                 3           1             4    7     1       0.8352336249E-04       4    7    1         0.4650436816E-02      0.9857867952E-02

    ------------------------------------------------
       NWT REQUIRED            3 OUTER ITERATIONS 
       AND A TOTAL OF          5 INNER ITERATIONS.
    ------------------------------------------------

 NO OUTPUT CONTROL FOR STRESS PERIOD   24   TIME STEP   23
 
 SOLVING FOR HEAD 
                                                   Max.-Head-Change                         Max.-Flux-Residual
  Residual-Control   Outer-Iter.   Inner-Iter.     Column Row Layer    Maximum-Head-Change  Column Row Layer    Maximum-Flux-Residual          L2-NORM 
          0                 1           2             4    7     1       0.1243565405E-01       4    7    1         0.6551556202E+00      0.1391713426E+01
          0                 2           2             4    7     1      -0.1209653437E-02       4    7    1        -0.6551579224E-01      0.1391714495E+00
          0                 3           1             4    7     1       0.8237288259E-04       4    7    1         0.4586105254E-02      0.9742003344E-02

    ------------------------------------------------
       NWT REQUIRED            3 OUTER ITERATIONS 
       AND A TOTAL OF          5 INNER ITERATIONS.
    ------------------------------------------------

 NO OUTPUT CONTROL FOR STRESS PERIOD   24   TIME STEP   24
 
 SOLVING FOR HEAD 
                                                   Max.-Head-Change                         Max.-Flux-Residual
  Residual-Control   Outer-Iter.   Inner-Iter.     Column Row Layer    Maximum-Head-Change  Column Row Layer    Maximum-Flux-Residual          L2-NORM 
          0                 1           2             4    7     1       0.1226545810E-01       4    7    1         0.6461502647E+00      0.1375479856E+01
          0                 2           2             4    7     1      -0.1193097921E-02       4    7    1        -0.6461525053E-01      0.1375480849E+00
          0                 3           1             4    7     1       0.8124551384E-04       4    7    1         0.4523067358E-02      0.9628370402E-02

    ------------------------------------------------
       NWT REQUIRED            3 OUTER ITERATIONS 
       AND A TOTAL OF          5 INNER ITERATIONS.
    ------------------------------------------------

 NO OUTPUT CONTROL FOR STRESS PERIOD   24   TIME STEP   25
 
 SOLVING FOR HEAD 
                                                   Max.-Head-Change                         Max.-Flux-Residual
  Residual-Control   Outer-Iter.   Inner-Iter.     Column Row Layer    Maximum-Head-Change  Column Row Layer    Maximum-Flux-Residual          L2-NORM 
          0                 1           2             4    7     1       0.1209812509E-01       4    7    1         0.6372962787E+00      0.1359537083E+01
          0                 2           2             4    7     1      -0.1176820894E-02       4    7    1        -0.6372984593E-01      0.1359537870E+00
          0                 3           1             4    7     1       0.8013711019E-04       4    7    1         0.4461089095E-02      0.9516758378E-02

    ------------------------------------------------
       NWT REQUIRED            3 OUTER ITERATIONS 
       AND A TOTAL OF          5 INNER ITERATIONS.
    ------------------------------------------------

 NO OUTPUT CONTROL FOR STRESS PERIOD   24   TIME STEP   26
 
 SOLVING FOR HEAD 
                                                   Max.-Head-Change                         Max.-Flux-Residual
  Residual-Control   Outer-Iter.   Inner-Iter.     Column Row Layer    Maximum-Head-Change  Column Row Layer    Maximum-Flux-Residual          L2-NORM 
          0                 1           2             4    7     1       0.1193414245E-01       4    7    1         0.6286202703E+00      0.1343890135E+01
          0                 2           2             4    7     1      -0.1160869769E-02       4    7    1        -0.6286223928E-01      0.1343890846E+00
          0                 3           1             4    7     1       0.7905089797E-04       4    7    1         0.4400356636E-02      0.9407230964E-02

    ------------------------------------------------
       NWT REQUIRED            3 OUTER ITERATIONS 
       AND A TOTAL OF          5 INNER ITERATIONS.
    ------------------------------------------------

 NO OUTPUT CONTROL FOR STRESS PERIOD   24   TIME STEP   27
 
 SOLVING FOR HEAD 
                                                   Max.-Head-Change                         Max.-Flux-Residual
  Residual-Control   Outer-Iter.   Inner-Iter.     Column Row Layer    Maximum-Head-Change  Column Row Layer    Maximum-Flux-Residual          L2-NORM 
          0                 1           2             4    7     1       0.1177261578E-01       4    7    1         0.6200736647E+00      0.1328510898E+01
          0                 2           2             4    7     1      -0.1145157545E-02       4    7    1        -0.6200757306E-01      0.1328511500E+00
          0                 3           1             4    7     1       0.7798095467E-04       4    7    1         0.4340530027E-02      0.9299570750E-02

    ------------------------------------------------
       NWT REQUIRED            3 OUTER ITERATIONS 
       AND A TOTAL OF          5 INNER ITERATIONS.
    ------------------------------------------------

 NO OUTPUT CONTROL FOR STRESS PERIOD   24   TIME STEP   28
 
 SOLVING FOR HEAD 
                                                   Max.-Head-Change                         Max.-Flux-Residual
  Residual-Control   Outer-Iter.   Inner-Iter.     Column Row Layer    Maximum-Head-Change  Column Row Layer    Maximum-Flux-Residual          L2-NORM 
          0                 1           2             4    7     1       0.1161432069E-01       4    7    1         0.6116987068E+00      0.1313413054E+01
          0                 2           2             4    7     1      -0.1129759668E-02       4    7    1        -0.6117007177E-01      0.1313413500E+00
          0                 3           1             4    7     1       0.7693241729E-04       4    7    1         0.4281904975E-02      0.9193886553E-02

    ------------------------------------------------
       NWT REQUIRED            3 OUTER ITERATIONS 
       AND A TOTAL OF          5 INNER ITERATIONS.
    ------------------------------------------------

 NO OUTPUT CONTROL FOR STRESS PERIOD   24   TIME STEP   29
 
 SOLVING FOR HEAD 
                                                   Max.-Head-Change                         Max.-Flux-Residual
  Residual-Control   Outer-Iter.   Inner-Iter.     Column Row Layer    Maximum-Head-Change  Column Row Layer    Maximum-Flux-Residual          L2-NORM 
          0                 1           2             4    7     1       0.1145890782E-01       4    7    1         0.6034765314E+00      0.1298580001E+01
          0                 2           2             4    7     1      -0.1114642154E-02       4    7    1        -0.6034784889E-01      0.1298580449E+00
          0                 3           1             4    7     1       0.7590297116E-04       4    7    1         0.4224349402E-02      0.9090058519E-02

    ------------------------------------------------
       NWT REQUIRED            3 OUTER ITERATIONS 
       AND A TOTAL OF          5 INNER ITERATIONS.
    ------------------------------------------------

 NO OUTPUT CONTROL FOR STRESS PERIOD   24   TIME STEP   30



 STREAM LISTING     PERIOD     24   STEP       30

 LAYER ROW COL. STREAM  RCH.  FLOW INTO     FLOW TO   FLOW OUT OF   OVRLND.     DIRECT     STREAM       STREAM     STREAM     STREAM   STREAMBED  STREAMBED
                SEG.NO.  NO.  STRM. RCH.    AQUIFER    STRM. RCH.    RUNOFF     PRECIP       ET          HEAD       DEPTH      WIDTH   CONDCTNC.   GRADIENT

   1    1    1     1     1    1.5750E+01  1.9239E-01   1.5558E+01  0.000E+00  0.000E+00  0.000E+00  1.09407E+03  1.025E+00  1.062E+01  4.780E-02  1.342E+00
   1    2    2     1     2    1.5558E+01  2.9660E-01   1.5261E+01  0.000E+00  0.000E+00  0.000E+00  1.08908E+03  1.020E+00  1.054E+01  7.378E-02  1.340E+00
   1    3    3     1     3    1.5261E+01  2.5164E-01   1.5010E+01  0.000E+00  0.000E+00  0.000E+00  1.08343E+03  1.015E+00  1.045E+01  6.268E-02  1.338E+00
   1    3    4     1     4    1.5010E+01  2.3064E-01   1.4779E+01  0.000E+00  0.000E+00  0.000E+00  1.07842E+03  1.010E+00  1.036E+01  5.752E-02  1.337E+00
   1    4    5     2     1    1.2779E+01  2.9653E-01   1.2482E+01  0.000E+00  0.000E+00  0.000E+00  1.07274E+03  8.017E-01  1.200E+01  7.800E-02  1.267E+00
   1    5    6     2     2    1.2482E+01  2.2750E-01   1.2255E+01  0.000E+00  0.000E+00  0.000E+00  1.06730E+03  7.917E-01  1.200E+01  6.000E-02  1.264E+00
   1    6    6     2     3    1.2255E+01  2.2697E-01   1.2028E+01  0.000E+00  0.000E+00  0.000E+00  1.06258E+03  7.829E-01  1.200E+01  6.000E-02  1.261E+00
   1    7    6     2     4    1.2028E+01  2.2645E-01   1.1802E+01  0.000E+00  0.000E+00  0.000E+00  1.05785E+03  7.741E-01  1.200E+01  6.000E-02  1.258E+00
   1    8    6     2     5    1.1802E+01  2.2591E-01   1.1576E+01  0.000E+00  0.000E+00  0.000E+00  1.05312E+03  7.652E-01  1.200E+01  6.000E-02  1.255E+00
   1    3    5     3     1    2.0000E+00  2.8252E-01   1.7175E+00  0.000E+00  0.000E+00  0.000E+00  1.07555E+03  1.909E+00  9.636E+00  7.227E-02  1.955E+00
   1    3    6     3     2    1.7175E+00  2.4905E-01   1.4684E+00  0.000E+00  0.000E+00  0.000E+00  1.07264E+03  1.727E+00  8.909E+00  6.682E-02  1.864E+00
   1    3    7     3     3    1.4684E+00  1.9718E-01   1.2712E+00  0.000E+00  0.000E+00  0.000E+00  1.06987E+03  1.555E+00  8.218E+00  5.547E-02  1.777E+00
   1    4    8     3     4    1.2712E+00  2.2567E-01   1.0456E+00  0.000E+00  0.000E+00  0.000E+00  1.06682E+03  1.364E+00  7.455E+00  6.709E-02  1.682E+00
   1    5    8     3     5    1.0456E+00  1.5790E-01   8.8768E-01  0.000E+00  0.000E+00  0.000E+00  1.06362E+03  1.164E+00  6.655E+00  4.991E-02  1.582E+00
   1    6    8     3     6    8.8768E-01  5.5980E-02   8.3170E-01  0.000E+00  0.000E+00  0.000E+00  1.06158E+03  1.036E+00  6.145E+00  1.844E-02  1.518E+00
   1    5   10     4     1    1.0000E+01  9.0919E-02   9.9091E+00  0.000E+00  0.000E+00  0.000E+00  1.07836E+03  6.368E-01  1.000E+01  2.500E-02  1.212E+00
   1    5    9     4     2    9.9091E+00  1.8158E-01   9.7275E+00  0.000E+00  0.000E+00  0.000E+00  1.07154E+03  6.315E-01  1.000E+01  5.000E-02  1.211E+00
   1    6    8     4     3    9.7275E+00  1.2689E-01   9.6006E+00  0.000E+00  0.000E+00  0.000E+00  1.06381E+03  6.256E-01  1.000E+01  3.500E-02  1.209E+00
   1    6    8     5     1    1.0432E+01  2.2686E-01   1.0205E+01  0.000E+00  0.000E+00  0.000E+00  1.05868E+03  6.790E-01  1.542E+01  6.166E-02  1.226E+00
   1    7    7     5     2    1.0205E+01  2.7894E-01   9.9265E+00  0.000E+00  0.000E+00  0.000E+00  1.05417E+03  6.732E-01  1.519E+01  7.594E-02  1.224E+00
   1    8    7     5     3    9.9265E+00  1.9221E-01   9.7343E+00  0.000E+00  0.000E+00  0.000E+00  1.04992E+03  6.676E-01  1.497E+01  5.241E-02  1.223E+00
   1    8    6     5     4    9.7343E+00  1.3577E-01   9.5985E+00  0.000E+00  0.000E+00  0.000E+00  1.04691E+03  6.637E-01  1.482E+01  3.706E-02  1.221E+00
   1    9    6     6     1    2.1174E+01  2.4608E-01   2.0928E+01  0.000E+00  0.000E+00  0.000E+00  1.04383E+03  1.101E+00  1.200E+01  6.000E-02  1.367E+00
   1   10    7     6     2    2.0928E+01  2.4562E-01   2.0682E+01  0.000E+00  0.000E+00  0.000E+00  1.03928E+03  1.094E+00  1.200E+01  6.000E-02  1.365E+00
   1   11    7     6     3    2.0682E+01  2.4515E-01   2.0437E+01  0.000E+00  0.000E+00  0.000E+00  1.03472E+03  1.086E+00  1.200E+01  6.000E-02  1.362E+00
   1   12    7     6     4    2.0437E+01  2.4469E-01   2.0193E+01  0.000E+00  0.000E+00  0.000E+00  1.03017E+03  1.078E+00  1.200E+01  6.000E-02  1.359E+00
   1   13    7     6     5    2.0193E+01 -2.5812E-02   2.0218E+01  0.000E+00  0.000E+00  0.000E+00  1.02698E+03  1.075E+00  1.200E+01  2.400E-01 -3.585E-02
   1   14    9     7     1    1.5000E+02  1.3369E+00   1.4866E+02  0.000E+00  0.000E+00  0.000E+00  1.03987E+03  2.288E+00  5.529E+01  5.593E-01  7.968E-01
   1   13    8     7     2    1.4866E+02  1.8302E+00   1.4683E+02  0.000E+00  0.000E+00  0.000E+00  1.03478E+03  2.279E+00  5.526E+01  6.148E-01  9.923E-01
   1   13    7     7     3    1.4683E+02  1.4512E+00   1.4538E+02  0.000E+00  0.000E+00  0.000E+00  1.02969E+03  2.271E+00  5.522E+01  5.585E-01  8.662E-01
   1   13    6     8     1    1.6560E+02  8.7483E-01   1.6473E+02  0.000E+00  0.000E+00  0.000E+00  1.02480E+03  2.920E+00  4.235E+01  4.315E-01  6.758E-01
   1   13    5     8     2    1.6473E+02  1.3312E-01   1.6459E+02  0.000E+00  0.000E+00  0.000E+00  1.01854E+03  2.917E+00  4.230E+01  4.310E-01  1.030E-01
   1   13    4     8     3    1.6459E+02 -2.5809E+00   1.6717E+02  0.000E+00  0.000E+00  0.000E+00  1.01230E+03  2.925E+00  4.242E+01  4.322E+00 -1.990E-01
   1   13    3     8     4    1.6717E+02 -3.7120E+00   1.7089E+02  0.000E+00  0.000E+00  0.000E+00  1.00607E+03  2.946E+00  4.272E+01  4.353E+00 -2.843E-01
   1   13    2     8     5    1.7089E+02 -2.5870E+00   1.7347E+02  0.000E+00  0.000E+00  0.000E+00  9.99841E+02  2.966E+00  4.301E+01  4.383E+00 -1.967E-01
   1   13    1     8     6    1.7347E+02 -1.9768E+00   1.7545E+02  0.000E+00  0.000E+00  0.000E+00  9.94856E+02  2.981E+00  4.322E+01  2.643E+00 -2.493E-01
   1    8    6     9     1    0.0000E+00  0.0000E+00   0.0000E+00  0.000E+00  0.000E+00  0.000E+00  1.07875E+03  0.000E+00  4.000E+00  0.000E+00  1.000E+00
   1    8    5     9     2    0.0000E+00  0.0000E+00   0.0000E+00  0.000E+00  0.000E+00  0.000E+00  1.07825E+03  0.000E+00  4.000E+00  0.000E+00  1.000E+00





UNSATURATED ZONE PACKAGE VOLUMETRIC BUDGET FOR  TIME STEP    30 STRESS PERIOD   24
  ------------------------------------------------------------------------------



     CUMULATIVE VOLUMES      L**3       RATES FOR THIS TIME STEP      L**3/T
     ------------------                 ------------------------

           IN:                                      IN:
           ---                                      ---
        INFILTRATION =  1067777484.0857          INFILTRATION =           4.4075

          OUT:                                     OUT:
          ----                                     ----
              UZF ET =   996824209.4679                UZF ET =           0.7250
        UZF RECHARGE =      654072.9065          UZF RECHARGE =       0.0000E+00

            IN - OUT =    70299201.7113              IN - OUT =           3.6825

          STORAGE:                                 STORAGE:
          --------                                 --------
      STORAGE CHANGE =    70299786.7657        STORAGE CHANGE =           3.6825

 PERCENT DISCREPANCY IS DIFFERENCE BETWEEN IN-OUT MINUS CHANGE IN STORAGE
 DIVIDED BY THE AVERAGE OF IN AND OUT TIMES 100

 PERCENT DISCREPANCY =          -0.00     PERCENT DISCREPANCY =           0.00






1
  VOLUMETRIC BUDGET FOR ENTIRE MODEL AT END OF TIME STEP   30, STRESS PERIOD  24
  ------------------------------------------------------------------------------

     CUMULATIVE VOLUMES      L**3       RATES FOR THIS TIME STEP      L**3/T
     ------------------                 ------------------------

           IN:                                      IN:
           ---                                      ---
               AG WELLS  =   176029504.0000                 AG WELLS  =           0.0000
      DIVERSION SEGMENTS =   625052736.0000        DIVERSION SEGMENTS =           0.0000
           GW IRRIGATION =           0.0000             GW IRRIGATION =           0.0000
           SW IRRIGATION =           0.0000             SW IRRIGATION =           0.0000
        SYSTEM LOSSES GW =           0.0000          SYSTEM LOSSES GW =           0.0000
        SYSTEM LOSSES SW =           0.0000          SYSTEM LOSSES SW =           0.0000

                TOTAL IN =   801082240.0000                  TOTAL IN =           0.0000

          OUT:                                     OUT:
          ----                                     ----
               AG WELLS  =           0.0000                 AG WELLS  =           0.0000
      DIVERSION SEGMENTS =           0.0000        DIVERSION SEGMENTS =           0.0000
           GW IRRIGATION =   176029504.0000             GW IRRIGATION =           0.0000
           SW IRRIGATION =   625066496.0000             SW IRRIGATION =           0.0000
        SYSTEM LOSSES GW =           0.0000          SYSTEM LOSSES GW =           0.0000
        SYSTEM LOSSES SW =           0.0000          SYSTEM LOSSES SW =           0.0000

               TOTAL OUT =   801096000.0000                 TOTAL OUT =           0.0000

                IN - OUT =      -13760.0000                  IN - OUT =           0.0000

     PERCENT DISCREPANCY =          -0.00         PERCENT DISCREPANCY =           0.00



1
  VOLUMETRIC BUDGET FOR ENTIRE MODEL AT END OF TIME STEP   30, STRESS PERIOD  24
  ------------------------------------------------------------------------------

     CUMULATIVE VOLUMES      L**3       RATES FOR THIS TIME STEP      L**3/T
     ------------------                 ------------------------

           IN:                                      IN:
           ---                                      ---
             STORAGE     =   277960288.0000               STORAGE     =           3.5484
       CONSTANT HEAD     =           0.0000         CONSTANT HEAD     =           0.0000
     HEAD DEP BOUNDS     =    17311214.0000       HEAD DEP BOUNDS     =           0.2858
      STREAM LEAKAGE     =   719467776.0000        STREAM LEAKAGE     =          11.1839
        UZF RECHARGE     =      654073.0000          UZF RECHARGE     =           0.0000
               GW ET     =           0.0000                 GW ET     =           0.0000
     SURFACE LEAKAGE     =           0.0000       SURFACE LEAKAGE     =           0.0000
           AG WELLS      =           0.0000             AG WELLS      =           0.0000

                TOTAL IN =  1015393344.0000                  TOTAL IN =          15.0181

          OUT:                                     OUT:
          ----                                     ----
             STORAGE     =   160235968.0000               STORAGE     =           3.8467
       CONSTANT HEAD     =           0.0000         CONSTANT HEAD     =           0.0000
     HEAD DEP BOUNDS     =    17604590.0000       HEAD DEP BOUNDS     =           0.2890
      STREAM LEAKAGE     =   659298496.0000        STREAM LEAKAGE     =          10.8825
        UZF RECHARGE     =           0.0000          UZF RECHARGE     =           0.0000
               GW ET     =     2231806.7500                 GW ET     =           0.0000
     SURFACE LEAKAGE     =           0.0000       SURFACE LEAKAGE     =           0.0000
           AG WELLS      =   176029504.0000             AG WELLS      =           0.0000

               TOTAL OUT =  1015400384.0000                 TOTAL OUT =          15.0182

                IN - OUT =       -7040.0000                  IN - OUT =      -8.2016E-05

     PERCENT DISCREPANCY =          -0.00         PERCENT DISCREPANCY =          -0.00






         TIME SUMMARY AT END OF TIME STEP   30 IN STRESS PERIOD   24
                    SECONDS     MINUTES      HOURS       DAYS        YEARS
                    -----------------------------------------------------------
   TIME STEP LENGTH  87667.      1461.1      24.352      1.0147     2.77799E-03
 STRESS PERIOD TIME 2.63000E+06  43833.      730.56      30.440     8.33397E-02
         TOTAL TIME 6.05767E+07 1.00961E+06  16827.      701.12      1.9196    
1
1
                            STRESS PERIOD NO.   25, LENGTH =   2630000.    
                            -----------------------------------------------

                              NUMBER OF TIME STEPS =    30

                               MULTIPLIER FOR DELT =     1.000

                            INITIAL TIME STEP SIZE =   87666.66    

 REUSING NON-PARAMETER GHB CELLS FROM LAST STRESS PERIOD

      2 GHB CELLS

 REUSING STREAM SEGMENT DATA FROM LAST STRESS PERIOD



            AREAL INFILTRATION RATE
 READING ON UNIT   19 WITH FORMAT: (10F4.0)            

            1           2           3           4           5           6           7           8           9          10
 ........................................................................................................................
   1   1.2000E-09   0.000       0.000       0.000       0.000       0.000       0.000       0.000       0.000       0.000    
   2   2.1000E-09  2.0000E-09  8.0000E-10  8.5000E-09   0.000       0.000       0.000       0.000       0.000       0.000    
   3   5.0000E-10  1.1000E-09  8.8000E-09  5.5000E-09   0.000       0.000       0.000       0.000       0.000       0.000    
   4   8.5000E-09  1.1000E-09  1.1000E-09  1.1000E-09  2.0000E-09   0.000       0.000       0.000       0.000       0.000    
   5   8.5000E-09  1.1000E-09  1.1000E-09  1.1000E-09  1.1000E-09   0.000       0.000       0.000       0.000       0.000    
   6   8.5000E-09  5.2000E-09  2.1000E-09  1.1000E-09  1.5000E-09   0.000       0.000       0.000       0.000       0.000    
   7   8.5000E-09  5.2000E-09  2.1000E-09  1.2000E-09  2.0000E-09   0.000       0.000       0.000       0.000       0.000    
   8   5.0000E-10  5.2000E-09  2.1000E-09  1.2000E-09  5.0000E-09   0.000       0.000       0.000       0.000       0.000    
   9   5.0000E-10  5.2000E-09  2.1000E-09  1.2000E-09  5.0000E-09   0.000       0.000       0.000       0.000       0.000    
  10   5.0000E-10  5.2000E-09  2.1000E-09  1.2000E-09  5.8000E-09   0.000       0.000       0.000       0.000       0.000    
  11   1.0000E-10  1.1000E-09  1.1000E-09  1.2000E-09  5.0000E-09   0.000       0.000       0.000       0.000       0.000    
  12   1.1000E-09  1.1000E-09  1.1000E-09  1.1000E-09  2.0000E-09   0.000       0.000       0.000       0.000       0.000    
  13   1.1000E-09  2.2000E-09  2.2000E-09  2.1000E-09  1.0000E-09   0.000       0.000       0.000       0.000       0.000    
  14   2.0000E-10  5.5000E-09  5.5000E-09  5.2000E-09  1.0000E-09   0.000       0.000       0.000       0.000       0.000    
  15    0.000      8.8000E-09  8.8000E-09   0.000       0.000       0.000       0.000       0.000       0.000       0.000    

                  ET RATE =  5.000000E-10

 USING ET EXTINCTION DEPTH FROM PREVIOUS STRESS PERIOD. CURRENT PERIOD IS:      25

 USING EXTINCTION WATER CONTENT FROM PREVIOUS STRESS PERIOD. CURRENT PERIOD IS:      25

 USING AIR ENTRY PRESSURE FROM PREVIOUS STRESS PERIOD. CURRENT PERIOD IS:      25

 USING ROOT PRESSURE HEAD FROM PREVIOUS STRESS PERIOD. CURRENT PERIOD IS:      25

 USING ROOT ACTIVITY FROM PREVIOUS STRESS PERIOD. CURRENT PERIOD IS:      25

 PROCESSING AG STRESS PERIOD DATA

 READING AG STRESS PERIOD DATA

 READING IRRIGATION SEGMENT

 READING IRRIGATION WELL

 READING SUPPLEMENTAL WELL

 END PROCESSING AG STRESS PERIOD DATA OPTIONS
 
 SOLVING FOR HEAD 
                                                   Max.-Head-Change                         Max.-Flux-Residual
  Residual-Control   Outer-Iter.   Inner-Iter.     Column Row Layer    Maximum-Head-Change  Column Row Layer    Maximum-Flux-Residual          L2-NORM 
          0                 1           2             4    7     1       0.1130604106E-01       4    7    1         0.5953890239E+00      0.1285315068E+01
          0                 2           2             4    7     1      -0.1099772311E-02       4    7    1        -0.5953909299E-01      0.1285300424E+00
          0                 3           1             4    7     1       0.7489039084E-04       4    7    1         0.4167736525E-02      0.8996961968E-02

    ------------------------------------------------
       NWT REQUIRED            3 OUTER ITERATIONS 
       AND A TOTAL OF          5 INNER ITERATIONS.
    ------------------------------------------------

 NO OUTPUT CONTROL FOR STRESS PERIOD   25   TIME STEP    1
 
 SOLVING FOR HEAD 
                                                   Max.-Head-Change                         Max.-Flux-Residual
  Residual-Control   Outer-Iter.   Inner-Iter.     Column Row Layer    Maximum-Head-Change  Column Row Layer    Maximum-Flux-Residual          L2-NORM 
          0                 1           2             4    7     1       0.1115593451E-01       4    7    1         0.5874482992E+00      0.1271526791E+01
          0                 2           2             4    7     1      -0.1085170961E-02       4    7    1        -0.5874501548E-01      0.1271504199E+00
          0                 3           1             4    7     1       0.7389609329E-04       4    7    1         0.4112151087E-02      0.8900321092E-02

    ------------------------------------------------
       NWT REQUIRED            3 OUTER ITERATIONS 
       AND A TOTAL OF          5 INNER ITERATIONS.
    ------------------------------------------------

 NO OUTPUT CONTROL FOR STRESS PERIOD   25   TIME STEP    2
 
 SOLVING FOR HEAD 
                                                   Max.-Head-Change                         Max.-Flux-Residual
  Residual-Control   Outer-Iter.   Inner-Iter.     Column Row Layer    Maximum-Head-Change  Column Row Layer    Maximum-Flux-Residual          L2-NORM 
          0                 1           2             4    7     1       0.1100853575E-01       4    7    1         0.5796506872E+00      0.1257413379E+01
          0                 2           2             4    7     1      -0.1070833010E-02       4    7    1        -0.5796524937E-01      0.1257392965E+00
          0                 3           1             4    7     1       0.7291973297E-04       4    7    1         0.4057567496E-02      0.8801558188E-02

    ------------------------------------------------
       NWT REQUIRED            3 OUTER ITERATIONS 
       AND A TOTAL OF          5 INNER ITERATIONS.
    ------------------------------------------------

 NO OUTPUT CONTROL FOR STRESS PERIOD   25   TIME STEP    3
 
 SOLVING FOR HEAD 
                                                   Max.-Head-Change                         Max.-Flux-Residual
  Residual-Control   Outer-Iter.   Inner-Iter.     Column Row Layer    Maximum-Head-Change  Column Row Layer    Maximum-Flux-Residual          L2-NORM 
          0                 1           2             4    7     1       0.1086378018E-01       4    7    1         0.5719934705E+00      0.1243540724E+01
          0                 2           2             4    7     1      -0.1056752170E-02       4    7    1        -0.5719952295E-01      0.1243522063E+00
          0                 3           1             4    7     1       0.7196088056E-04       4    7    1         0.4003966673E-02      0.8704477268E-02

    ------------------------------------------------
       NWT REQUIRED            3 OUTER ITERATIONS 
       AND A TOTAL OF          5 INNER ITERATIONS.
    ------------------------------------------------

 NO OUTPUT CONTROL FOR STRESS PERIOD   25   TIME STEP    4
 
 SOLVING FOR HEAD 
                                                   Max.-Head-Change                         Max.-Flux-Residual
  Residual-Control   Outer-Iter.   Inner-Iter.     Column Row Layer    Maximum-Head-Change  Column Row Layer    Maximum-Flux-Residual          L2-NORM 
          0                 1           2             4    7     1       0.1072161268E-01       4    7    1         0.5644732988E+00      0.1229917446E+01
          0                 2           2             4    7     1      -0.1042923081E-02       4    7    1        -0.5644750118E-01      0.1229900666E+00
          0                 3           1             4    7     1       0.7101917157E-04       4    7    1         0.3951325154E-02      0.8609158493E-02

    ------------------------------------------------
       NWT REQUIRED            3 OUTER ITERATIONS 
       AND A TOTAL OF          5 INNER ITERATIONS.
    ------------------------------------------------

 NO OUTPUT CONTROL FOR STRESS PERIOD   25   TIME STEP    5
 
 SOLVING FOR HEAD 
                                                   Max.-Head-Change                         Max.-Flux-Residual
  Residual-Control   Outer-Iter.   Inner-Iter.     Column Row Layer    Maximum-Head-Change  Column Row Layer    Maximum-Flux-Residual          L2-NORM 
          0                 1           2             4    7     1       0.1058197106E-01       4    7    1         0.5570873149E+00      0.1216519481E+01
          0                 2           2             4    7     1      -0.1029339693E-02       4    7    1        -0.5570889831E-01      0.1216503874E+00
          0                 3           1             4    7     1       0.7009419420E-04       4    7    1         0.3899623000E-02      0.8515361952E-02

    ------------------------------------------------
       NWT REQUIRED            3 OUTER ITERATIONS 
       AND A TOTAL OF          5 INNER ITERATIONS.
    ------------------------------------------------

 NO OUTPUT CONTROL FOR STRESS PERIOD   25   TIME STEP    6
 
 SOLVING FOR HEAD 
                                                   Max.-Head-Change                         Max.-Flux-Residual
  Residual-Control   Outer-Iter.   Inner-Iter.     Column Row Layer    Maximum-Head-Change  Column Row Layer    Maximum-Flux-Residual          L2-NORM 
          0                 1           2             4    7     1       0.1044480824E-01       4    7    1         0.5498322938E+00      0.1203364994E+01
          0                 2           2             4    7     1      -0.1015997427E-02       4    7    1        -0.5498339183E-01      0.1203352883E+00
          0                 3           1             4    7     1       0.6918563628E-04       4    7    1         0.3848837578E-02      0.8423315412E-02

    ------------------------------------------------
       NWT REQUIRED            3 OUTER ITERATIONS 
       AND A TOTAL OF          5 INNER ITERATIONS.
    ------------------------------------------------

 NO OUTPUT CONTROL FOR STRESS PERIOD   25   TIME STEP    7
 
 SOLVING FOR HEAD 
                                                   Max.-Head-Change                         Max.-Flux-Residual
  Residual-Control   Outer-Iter.   Inner-Iter.     Column Row Layer    Maximum-Head-Change  Column Row Layer    Maximum-Flux-Residual          L2-NORM 
          0                 1           2             4    7     1       0.1031006523E-01       4    7    1         0.5427057953E+00      0.1190422142E+01
          0                 2           2             4    7     1      -0.1002890543E-02       4    7    1        -0.5427073776E-01      0.1190409007E+00
          0                 3           1             4    7     1       0.6829310611E-04       4    7    1         0.3798951784E-02      0.8332739621E-02

    ------------------------------------------------
       NWT REQUIRED            3 OUTER ITERATIONS 
       AND A TOTAL OF          5 INNER ITERATIONS.
    ------------------------------------------------

 NO OUTPUT CONTROL FOR STRESS PERIOD   25   TIME STEP    8
 
 SOLVING FOR HEAD 
                                                   Max.-Head-Change                         Max.-Flux-Residual
  Residual-Control   Outer-Iter.   Inner-Iter.     Column Row Layer    Maximum-Head-Change  Column Row Layer    Maximum-Flux-Residual          L2-NORM 
          0                 1           2             4    7     1       0.1017768781E-01       4    7    1         0.5357047600E+00      0.1177703928E+01
          0                 2           2             4    7     1      -0.9900137689E-03       4    7    1        -0.5357063012E-01      0.1177691783E+00
          0                 3           1             4    7     1       0.6741624631E-04       4    7    1         0.3749944269E-02      0.8243736762E-02

    ------------------------------------------------
       NWT REQUIRED            3 OUTER ITERATIONS 
       AND A TOTAL OF          5 INNER ITERATIONS.
    ------------------------------------------------

 NO OUTPUT CONTROL FOR STRESS PERIOD   25   TIME STEP    9
 
 SOLVING FOR HEAD 
                                                   Max.-Head-Change                         Max.-Flux-Residual
  Residual-Control   Outer-Iter.   Inner-Iter.     Column Row Layer    Maximum-Head-Change  Column Row Layer    Maximum-Flux-Residual          L2-NORM 
          0                 1           2             4    7     1       0.1004735441E-01       4    7    1         0.5288116031E+00      0.1165193664E+01
          0                 2           2             4    7     1      -0.9773358244E-03       4    7    1        -0.5288131041E-01      0.1165182605E+00
          0                 3           1             4    7     1       0.6655292588E-04       4    7    1         0.3701691919E-02      0.8156180001E-02

    ------------------------------------------------
       NWT REQUIRED            3 OUTER ITERATIONS 
       AND A TOTAL OF          5 INNER ITERATIONS.
    ------------------------------------------------

 NO OUTPUT CONTROL FOR STRESS PERIOD   25   TIME STEP   10
 
 SOLVING FOR HEAD 
                                                   Max.-Head-Change                         Max.-Flux-Residual
  Residual-Control   Outer-Iter.   Inner-Iter.     Column Row Layer    Maximum-Head-Change  Column Row Layer    Maximum-Flux-Residual          L2-NORM 
          0                 1           2             4    7     1       0.9919572044E-02       4    7    1         0.5220539740E+00      0.1152895683E+01
          0                 2           2             4    7     1      -0.9649060271E-03       4    7    1        -0.5220554363E-01      0.1152885475E+00
          0                 3           1             4    7     1       0.6570650345E-04       4    7    1         0.3654388259E-02      0.8070121353E-02

    ------------------------------------------------
       NWT REQUIRED            3 OUTER ITERATIONS 
       AND A TOTAL OF          5 INNER ITERATIONS.
    ------------------------------------------------

 NO OUTPUT CONTROL FOR STRESS PERIOD   25   TIME STEP   11
 
 SOLVING FOR HEAD 
                                                   Max.-Head-Change                         Max.-Flux-Residual
  Residual-Control   Outer-Iter.   Inner-Iter.     Column Row Layer    Maximum-Head-Change  Column Row Layer    Maximum-Flux-Residual          L2-NORM 
          0                 1           2             4    7     1       0.9794002867E-02       4    7    1         0.5154138378E+00      0.1140804066E+01
          0                 2           2             4    7     1      -0.9526915150E-03       4    7    1        -0.5154152626E-01      0.1140794388E+00
          0                 3           1             4    7     1       0.6487474080E-04       4    7    1         0.3607907063E-02      0.7985466006E-02

    ------------------------------------------------
       NWT REQUIRED            3 OUTER ITERATIONS 
       AND A TOTAL OF          5 INNER ITERATIONS.
    ------------------------------------------------

 NO OUTPUT CONTROL FOR STRESS PERIOD   25   TIME STEP   12
 
 SOLVING FOR HEAD 
                                                   Max.-Head-Change                         Max.-Flux-Residual
  Residual-Control   Outer-Iter.   Inner-Iter.     Column Row Layer    Maximum-Head-Change  Column Row Layer    Maximum-Flux-Residual          L2-NORM 
          0                 1           2             4    7     1       0.9670600928E-02       4    7    1         0.5088884522E+00      0.1128914188E+01
          0                 2           2             4    7     1      -0.9406878171E-03       4    7    1        -0.5088898404E-01      0.1128904899E+00
          0                 3           1             4    7     1       0.6405733380E-04       4    7    1         0.3562229098E-02      0.7902247414E-02

    ------------------------------------------------
       NWT REQUIRED            3 OUTER ITERATIONS 
       AND A TOTAL OF          5 INNER ITERATIONS.
    ------------------------------------------------

 NO OUTPUT CONTROL FOR STRESS PERIOD   25   TIME STEP   13
 
 SOLVING FOR HEAD 
                                                   Max.-Head-Change                         Max.-Flux-Residual
  Residual-Control   Outer-Iter.   Inner-Iter.     Column Row Layer    Maximum-Head-Change  Column Row Layer    Maximum-Flux-Residual          L2-NORM 
          0                 1           2             4    7     1       0.9549319216E-02       4    7    1         0.5024754347E+00      0.1117215931E+01
          0                 2           2             4    7     1      -0.9289326206E-03       4    7    1        -0.5024767872E-01      0.1117843425E+00
          0                 3           1             4    7     1       0.6325684917E-04       4    7    1         0.3517337754E-02      0.7824814096E-02

    ------------------------------------------------
       NWT REQUIRED            3 OUTER ITERATIONS 
       AND A TOTAL OF          5 INNER ITERATIONS.
    ------------------------------------------------

 NO OUTPUT CONTROL FOR STRESS PERIOD   25   TIME STEP   14
 
 SOLVING FOR HEAD 
                                                   Max.-Head-Change                         Max.-Flux-Residual
  Residual-Control   Outer-Iter.   Inner-Iter.     Column Row Layer    Maximum-Head-Change  Column Row Layer    Maximum-Flux-Residual          L2-NORM 
          0                 1           2             4    7     1       0.9429978381E-02       4    7    1         0.4961701017E+00      0.1105652143E+01
          0                 2           2             4    7     1      -0.9172817079E-03       4    7    1        -0.4961714209E-01      0.1105644275E+00
          0                 3           1             4    7     1       0.6246346546E-04       4    7    1         0.3473200189E-02      0.7739438192E-02

    ------------------------------------------------
       NWT REQUIRED            3 OUTER ITERATIONS 
       AND A TOTAL OF          5 INNER ITERATIONS.
    ------------------------------------------------

 NO OUTPUT CONTROL FOR STRESS PERIOD   25   TIME STEP   15
 
 SOLVING FOR HEAD 
                                                   Max.-Head-Change                         Max.-Flux-Residual
  Residual-Control   Outer-Iter.   Inner-Iter.     Column Row Layer    Maximum-Head-Change  Column Row Layer    Maximum-Flux-Residual          L2-NORM 
          0                 1           2             4    7     1       0.9312940112E-02       4    7    1         0.4899846666E+00      0.1094268189E+01
          0                 2           2             4    7     1      -0.9058970268E-03       4    7    1        -0.4899859526E-01      0.1094260388E+00
          0                 3           1             4    7     1       0.6168821163E-04       4    7    1         0.3429901939E-02      0.7659740185E-02

    ------------------------------------------------
       NWT REQUIRED            3 OUTER ITERATIONS 
       AND A TOTAL OF          5 INNER ITERATIONS.
    ------------------------------------------------

 NO OUTPUT CONTROL FOR STRESS PERIOD   25   TIME STEP   16
 
 SOLVING FOR HEAD 
                                                   Max.-Head-Change                         Max.-Flux-Residual
  Residual-Control   Outer-Iter.   Inner-Iter.     Column Row Layer    Maximum-Head-Change  Column Row Layer    Maximum-Flux-Residual          L2-NORM 
          0                 1           2             4    7     1       0.9197564234E-02       4    7    1         0.4838868194E+00      0.1083061403E+01
          0                 2           2             4    7     1      -0.8946740521E-03       4    7    1        -0.4838880732E-01      0.1083054026E+00
          0                 3           1             4    7     1       0.6092396902E-04       4    7    1         0.3387216795E-02      0.7581309442E-02

    ------------------------------------------------
       NWT REQUIRED            3 OUTER ITERATIONS 
       AND A TOTAL OF          5 INNER ITERATIONS.
    ------------------------------------------------

 NO OUTPUT CONTROL FOR STRESS PERIOD   25   TIME STEP   17
 
 SOLVING FOR HEAD 
                                                   Max.-Head-Change                         Max.-Flux-Residual
  Residual-Control   Outer-Iter.   Inner-Iter.     Column Row Layer    Maximum-Head-Change  Column Row Layer    Maximum-Flux-Residual          L2-NORM 
          0                 1           2             4    7     1       0.9084103361E-02       4    7    1         0.4778899405E+00      0.1072053347E+01
          0                 2           2             4    7     1      -0.8836373562E-03       4    7    1        -0.4778911628E-01      0.1072046291E+00
          0                 3           1             4    7     1       0.6017241139E-04       4    7    1         0.3345238427E-02      0.7504235753E-02

    ------------------------------------------------
       NWT REQUIRED            3 OUTER ITERATIONS 
       AND A TOTAL OF          5 INNER ITERATIONS.
    ------------------------------------------------

 NO OUTPUT CONTROL FOR STRESS PERIOD   25   TIME STEP   18
 
 SOLVING FOR HEAD 
                                                   Max.-Head-Change                         Max.-Flux-Residual
  Residual-Control   Outer-Iter.   Inner-Iter.     Column Row Layer    Maximum-Head-Change  Column Row Layer    Maximum-Flux-Residual          L2-NORM 
          0                 1           2             4    7     1       0.8972787144E-02       4    7    1         0.4720071285E+00      0.1061208628E+01
          0                 2           2             4    7     1      -0.8728092787E-03       4    7    1        -0.4720083202E-01      0.1061202054E+00
          0                 3           1             4    7     1       0.5943506007E-04       4    7    1         0.3304058559E-02      0.7428348532E-02

    ------------------------------------------------
       NWT REQUIRED            3 OUTER ITERATIONS 
       AND A TOTAL OF          5 INNER ITERATIONS.
    ------------------------------------------------

 NO OUTPUT CONTROL FOR STRESS PERIOD   25   TIME STEP   19
 
 SOLVING FOR HEAD 
                                                   Max.-Head-Change                         Max.-Flux-Residual
  Residual-Control   Outer-Iter.   Inner-Iter.     Column Row Layer    Maximum-Head-Change  Column Row Layer    Maximum-Flux-Residual          L2-NORM 
          0                 1           2             4    7     1       0.8863294565E-02       4    7    1         0.4662207375E+00      0.1050548534E+01
          0                 2           2             4    7     1      -0.8621585928E-03       4    7    1        -0.4662218999E-01      0.1050542163E+00
          0                 3           1             4    7     1       0.5870978832E-04       4    7    1         0.3263553609E-02      0.7353735965E-02

    ------------------------------------------------
       NWT REQUIRED            3 OUTER ITERATIONS 
       AND A TOTAL OF          5 INNER ITERATIONS.
    ------------------------------------------------

 NO OUTPUT CONTROL FOR STRESS PERIOD   25   TIME STEP   20
 
 SOLVING FOR HEAD 
                                                   Max.-Head-Change                         Max.-Flux-Residual
  Residual-Control   Outer-Iter.   Inner-Iter.     Column Row Layer    Maximum-Head-Change  Column Row Layer    Maximum-Flux-Residual          L2-NORM 
          0                 1           2             4    7     1       0.8755591261E-02       4    7    1         0.4605288993E+00      0.1040049910E+01
          0                 2           2             4    7     1      -0.8516819550E-03       4    7    1        -0.4605300325E-01      0.1040043696E+00
          0                 3           1             4    7     1       0.5799636869E-04       4    7    1         0.3223710566E-02      0.7280246633E-02

    ------------------------------------------------
       NWT REQUIRED            3 OUTER ITERATIONS 
       AND A TOTAL OF          5 INNER ITERATIONS.
    ------------------------------------------------

 NO OUTPUT CONTROL FOR STRESS PERIOD   25   TIME STEP   21
 
 SOLVING FOR HEAD 
                                                   Max.-Head-Change                         Max.-Flux-Residual
  Residual-Control   Outer-Iter.   Inner-Iter.     Column Row Layer    Maximum-Head-Change  Column Row Layer    Maximum-Flux-Residual          L2-NORM 
          0                 1           2             4    7     1       0.8649640264E-02       4    7    1         0.4549298324E+00      0.1029713242E+01
          0                 2           2             4    7     1      -0.8413757702E-03       4    7    1        -0.4549309374E-01      0.1029707253E+00
          0                 3           1             4    7     1       0.5729455576E-04       4    7    1         0.3184516896E-02      0.7207877948E-02

    ------------------------------------------------
       NWT REQUIRED            3 OUTER ITERATIONS 
       AND A TOTAL OF          5 INNER ITERATIONS.
    ------------------------------------------------

 NO OUTPUT CONTROL FOR STRESS PERIOD   25   TIME STEP   22
 
 SOLVING FOR HEAD 
                                                   Max.-Head-Change                         Max.-Flux-Residual
  Residual-Control   Outer-Iter.   Inner-Iter.     Column Row Layer    Maximum-Head-Change  Column Row Layer    Maximum-Flux-Residual          L2-NORM 
          0                 1           2             4    7     1       0.8545675667E-02       4    7    1         0.4494363979E+00      0.1019544707E+01
          0                 2           2             4    7     1      -0.8312628098E-03       4    7    1        -0.4494374760E-01      0.1019538704E+00
          0                 3           1             4    7     1       0.5660590091E-04       4    7    1         0.3146062664E-02      0.7136704975E-02

    ------------------------------------------------
       NWT REQUIRED            3 OUTER ITERATIONS 
       AND A TOTAL OF          5 INNER ITERATIONS.
    ------------------------------------------------

 NO OUTPUT CONTROL FOR STRESS PERIOD   25   TIME STEP   23
 
 SOLVING FOR HEAD 
                                                   Max.-Head-Change                         Max.-Flux-Residual
  Residual-Control   Outer-Iter.   Inner-Iter.     Column Row Layer    Maximum-Head-Change  Column Row Layer    Maximum-Flux-Residual          L2-NORM 
          0                 1           2             4    7     1       0.8443109932E-02       4    7    1         0.4440163996E+00      0.1009534490E+01
          0                 2           2             4    7     1      -0.8212859204E-03       4    7    1        -0.4440174507E-01      0.1009528895E+00
          0                 3           1             4    7     1       0.5592651230E-04       4    7    1         0.3108122497E-02      0.7066669492E-02

    ------------------------------------------------
       NWT REQUIRED            3 OUTER ITERATIONS 
       AND A TOTAL OF          5 INNER ITERATIONS.
    ------------------------------------------------

 NO OUTPUT CONTROL FOR STRESS PERIOD   25   TIME STEP   24
 
 SOLVING FOR HEAD 
                                                   Max.-Head-Change                         Max.-Flux-Residual
  Residual-Control   Outer-Iter.   Inner-Iter.     Column Row Layer    Maximum-Head-Change  Column Row Layer    Maximum-Flux-Residual          L2-NORM 
          0                 1           2             4    7     1       0.8342467839E-02       4    7    1         0.4386984864E+00      0.9996825445E+00
          0                 2           2             4    7     1      -0.8114961511E-03       4    7    1        -0.4386995117E-01      0.9996769847E-01
          0                 3           1             4    7     1       0.5525986570E-04       4    7    1         0.3070896946E-02      0.6997689608E-02

    ------------------------------------------------
       NWT REQUIRED            3 OUTER ITERATIONS 
       AND A TOTAL OF          5 INNER ITERATIONS.
    ------------------------------------------------

 NO OUTPUT CONTROL FOR STRESS PERIOD   25   TIME STEP   25
 
 SOLVING FOR HEAD 
                                                   Max.-Head-Change                         Max.-Flux-Residual
  Residual-Control   Outer-Iter.   Inner-Iter.     Column Row Layer    Maximum-Head-Change  Column Row Layer    Maximum-Flux-Residual          L2-NORM 
          0                 1           2             4    7     1       0.8243425219E-02       4    7    1         0.4334655332E+00      0.9899773383E+00
          0                 2           2             4    7     1      -0.8018619674E-03       4    7    1        -0.4334665332E-01      0.9899712991E-01
          0                 3           1             4    7     1       0.5460381402E-04       4    7    1         0.3034266104E-02      0.6929732569E-02

    ------------------------------------------------
       NWT REQUIRED            3 OUTER ITERATIONS 
       AND A TOTAL OF          5 INNER ITERATIONS.
    ------------------------------------------------

 NO OUTPUT CONTROL FOR STRESS PERIOD   25   TIME STEP   26
 
 SOLVING FOR HEAD 
                                                   Max.-Head-Change                         Max.-Flux-Residual
  Residual-Control   Outer-Iter.   Inner-Iter.     Column Row Layer    Maximum-Head-Change  Column Row Layer    Maximum-Flux-Residual          L2-NORM 
          0                 1           2             4    7     1       0.8146228813E-02       4    7    1         0.4283302890E+00      0.9804272000E+00
          0                 2           2             4    7     1      -0.7924073715E-03       4    7    1        -0.4283312647E-01      0.9804217795E-01
          0                 3           1             4    7     1       0.5395999148E-04       4    7    1         0.2998319226E-02      0.6862906203E-02

    ------------------------------------------------
       NWT REQUIRED            3 OUTER ITERATIONS 
       AND A TOTAL OF          5 INNER ITERATIONS.
    ------------------------------------------------

 NO OUTPUT CONTROL FOR STRESS PERIOD   25   TIME STEP   27
 
 SOLVING FOR HEAD 
                                                   Max.-Head-Change                         Max.-Flux-Residual
  Residual-Control   Outer-Iter.   Inner-Iter.     Column Row Layer    Maximum-Head-Change  Column Row Layer    Maximum-Flux-Residual          L2-NORM 
          0                 1           2             4    7     1       0.8050283433E-02       4    7    1         0.4232612107E+00      0.9710069091E+00
          0                 2           2             4    7     1      -0.7830744662E-03       4    7    1        -0.4232621623E-01      0.9710017809E-01
          0                 3           1             4    7     1       0.5332445511E-04       4    7    1         0.2962835503E-02      0.6796989262E-02

    ------------------------------------------------
       NWT REQUIRED            3 OUTER ITERATIONS 
       AND A TOTAL OF          5 INNER ITERATIONS.
    ------------------------------------------------

 NO OUTPUT CONTROL FOR STRESS PERIOD   25   TIME STEP   28
 
 SOLVING FOR HEAD 
                                                   Max.-Head-Change                         Max.-Flux-Residual
  Residual-Control   Outer-Iter.   Inner-Iter.     Column Row Layer    Maximum-Head-Change  Column Row Layer    Maximum-Flux-Residual          L2-NORM 
          0                 1           2             4    7     1       0.7956120821E-02       4    7    1         0.4182865543E+00      0.9617424729E+00
          0                 2           2             4    7     1      -0.7739149772E-03       4    7    1        -0.4182874825E-01      0.9617373246E-01
          0                 3           1             4    7     1       0.5270072826E-04       4    7    1         0.2928012757E-02      0.6732097976E-02

    ------------------------------------------------
       NWT REQUIRED            3 OUTER ITERATIONS 
       AND A TOTAL OF          5 INNER ITERATIONS.
    ------------------------------------------------

 NO OUTPUT CONTROL FOR STRESS PERIOD   25   TIME STEP   29
 
 SOLVING FOR HEAD 
                                                   Max.-Head-Change                         Max.-Flux-Residual
  Residual-Control   Outer-Iter.   Inner-Iter.     Column Row Layer    Maximum-Head-Change  Column Row Layer    Maximum-Flux-Residual          L2-NORM 
          0                 1           2             4    7     1       0.7863699454E-02       4    7    1         0.4134043324E+00      0.9527760408E+00
          0                 2           2             4    7     1      -0.7649248651E-03       4    7    1        -0.4134052382E-01      0.9527691599E-01
          0                 3           1             4    7     1       0.5208853545E-04       4    7    1         0.2893837063E-02      0.6669332175E-02

    ------------------------------------------------
       NWT REQUIRED            3 OUTER ITERATIONS 
       AND A TOTAL OF          5 INNER ITERATIONS.
    ------------------------------------------------

 NO OUTPUT CONTROL FOR STRESS PERIOD   25   TIME STEP   30



 STREAM LISTING     PERIOD     25   STEP       30

 LAYER ROW COL. STREAM  RCH.  FLOW INTO     FLOW TO   FLOW OUT OF   OVRLND.     DIRECT     STREAM       STREAM     STREAM     STREAM   STREAMBED  STREAMBED
                SEG.NO.  NO.  STRM. RCH.    AQUIFER    STRM. RCH.    RUNOFF     PRECIP       ET          HEAD       DEPTH      WIDTH   CONDCTNC.   GRADIENT

   1    1    1     1     1    1.4942E+01  1.8668E-01   1.4756E+01  0.000E+00  0.000E+00  0.000E+00  1.09406E+03  1.009E+00  1.035E+01  4.656E-02  1.336E+00
   1    2    2     1     2    1.4756E+01  2.8774E-01   1.4468E+01  0.000E+00  0.000E+00  0.000E+00  1.08906E+03  1.004E+00  1.027E+01  7.186E-02  1.335E+00
   1    3    3     1     3    1.4468E+01  2.4407E-01   1.4224E+01  0.000E+00  0.000E+00  0.000E+00  1.08342E+03  9.991E-01  1.017E+01  6.103E-02  1.333E+00
   1    3    4     1     4    1.4224E+01  2.2366E-01   1.4000E+01  0.000E+00  0.000E+00  0.000E+00  1.07840E+03  9.944E-01  1.009E+01  5.599E-02  1.331E+00
   1    4    5     2     1    1.2000E+01  2.9419E-01   1.1706E+01  0.000E+00  0.000E+00  0.000E+00  1.07271E+03  7.717E-01  1.200E+01  7.800E-02  1.257E+00
   1    5    6     2     2    1.1706E+01  2.2569E-01   1.1480E+01  0.000E+00  0.000E+00  0.000E+00  1.06727E+03  7.615E-01  1.200E+01  6.000E-02  1.254E+00
   1    6    6     2     3    1.1480E+01  2.2515E-01   1.1255E+01  0.000E+00  0.000E+00  0.000E+00  1.06255E+03  7.526E-01  1.200E+01  6.000E-02  1.251E+00
   1    7    6     2     4    1.1255E+01  2.2462E-01   1.1031E+01  0.000E+00  0.000E+00  0.000E+00  1.05782E+03  7.436E-01  1.200E+01  6.000E-02  1.248E+00
   1    8    6     2     5    1.1031E+01  2.2408E-01   1.0807E+01  0.000E+00  0.000E+00  0.000E+00  1.05309E+03  7.346E-01  1.200E+01  6.000E-02  1.245E+00
   1    3    5     3     1    2.0000E+00  2.8252E-01   1.7175E+00  0.000E+00  0.000E+00  0.000E+00  1.07555E+03  1.909E+00  9.636E+00  7.227E-02  1.955E+00
   1    3    6     3     2    1.7175E+00  2.4905E-01   1.4684E+00  0.000E+00  0.000E+00  0.000E+00  1.07264E+03  1.727E+00  8.909E+00  6.682E-02  1.864E+00
   1    3    7     3     3    1.4684E+00  1.9718E-01   1.2712E+00  0.000E+00  0.000E+00  0.000E+00  1.06987E+03  1.555E+00  8.218E+00  5.547E-02  1.777E+00
   1    4    8     3     4    1.2712E+00  2.2567E-01   1.0456E+00  0.000E+00  0.000E+00  0.000E+00  1.06682E+03  1.364E+00  7.455E+00  6.709E-02  1.682E+00
   1    5    8     3     5    1.0456E+00  1.5790E-01   8.8768E-01  0.000E+00  0.000E+00  0.000E+00  1.06362E+03  1.164E+00  6.655E+00  4.991E-02  1.582E+00
   1    6    8     3     6    8.8768E-01  5.5980E-02   8.3170E-01  0.000E+00  0.000E+00  0.000E+00  1.06158E+03  1.036E+00  6.145E+00  1.844E-02  1.518E+00
   1    5   10     4     1    1.0000E+01  9.0919E-02   9.9091E+00  0.000E+00  0.000E+00  0.000E+00  1.07836E+03  6.368E-01  1.000E+01  2.500E-02  1.212E+00
   1    5    9     4     2    9.9091E+00  1.8158E-01   9.7275E+00  0.000E+00  0.000E+00  0.000E+00  1.07154E+03  6.315E-01  1.000E+01  5.000E-02  1.211E+00
   1    6    8     4     3    9.7275E+00  1.2689E-01   9.6006E+00  0.000E+00  0.000E+00  0.000E+00  1.06381E+03  6.256E-01  1.000E+01  3.500E-02  1.209E+00
   1    6    8     5     1    1.0432E+01  2.2686E-01   1.0205E+01  0.000E+00  0.000E+00  0.000E+00  1.05868E+03  6.790E-01  1.542E+01  6.166E-02  1.226E+00
   1    7    7     5     2    1.0205E+01  2.7894E-01   9.9265E+00  0.000E+00  0.000E+00  0.000E+00  1.05417E+03  6.732E-01  1.519E+01  7.594E-02  1.224E+00
   1    8    7     5     3    9.9265E+00  1.9221E-01   9.7343E+00  0.000E+00  0.000E+00  0.000E+00  1.04992E+03  6.676E-01  1.497E+01  5.241E-02  1.223E+00
   1    8    6     5     4    9.7343E+00  1.3577E-01   9.5985E+00  0.000E+00  0.000E+00  0.000E+00  1.04691E+03  6.637E-01  1.482E+01  3.706E-02  1.221E+00
   1    9    6     6     1    2.0405E+01  2.4462E-01   2.0161E+01  0.000E+00  0.000E+00  0.000E+00  1.04380E+03  1.077E+00  1.200E+01  6.000E-02  1.359E+00
   1   10    7     6     2    2.0161E+01  2.4416E-01   1.9916E+01  0.000E+00  0.000E+00  0.000E+00  1.03925E+03  1.069E+00  1.200E+01  6.000E-02  1.356E+00
   1   11    7     6     3    1.9916E+01  2.4369E-01   1.9673E+01  0.000E+00  0.000E+00  0.000E+00  1.03470E+03  1.061E+00  1.200E+01  6.000E-02  1.354E+00
   1   12    7     6     4    1.9673E+01  2.4322E-01   1.9429E+01  0.000E+00  0.000E+00  0.000E+00  1.03014E+03  1.054E+00  1.200E+01  6.000E-02  1.351E+00
   1   13    7     6     5    1.9429E+01 -3.0261E-02   1.9460E+01  0.000E+00  0.000E+00  0.000E+00  1.02696E+03  1.050E+00  1.200E+01  2.400E-01 -4.203E-02
   1   14    9     7     1    1.5000E+02  1.3372E+00   1.4866E+02  0.000E+00  0.000E+00  0.000E+00  1.03987E+03  2.288E+00  5.529E+01  5.593E-01  7.970E-01
   1   13    8     7     2    1.4866E+02  1.8310E+00   1.4683E+02  0.000E+00  0.000E+00  0.000E+00  1.03478E+03  2.279E+00  5.526E+01  6.148E-01  9.928E-01
   1   13    7     7     3    1.4683E+02  1.4545E+00   1.4538E+02  0.000E+00  0.000E+00  0.000E+00  1.02969E+03  2.271E+00  5.522E+01  5.585E-01  8.682E-01
   1   13    6     8     1    1.6484E+02  8.7539E-01   1.6396E+02  0.000E+00  0.000E+00  0.000E+00  1.02479E+03  2.915E+00  4.227E+01  4.308E-01  6.774E-01
   1   13    5     8     2    1.6396E+02  1.3551E-01   1.6383E+02  0.000E+00  0.000E+00  0.000E+00  1.01854E+03  2.912E+00  4.222E+01  4.303E-01  1.050E-01
   1   13    4     8     3    1.6383E+02 -2.5699E+00   1.6640E+02  0.000E+00  0.000E+00  0.000E+00  1.01230E+03  2.920E+00  4.234E+01  4.315E+00 -1.985E-01
   1   13    3     8     4    1.6640E+02 -3.7083E+00   1.7010E+02  0.000E+00  0.000E+00  0.000E+00  1.00607E+03  2.941E+00  4.264E+01  4.345E+00 -2.845E-01
   1   13    2     8     5    1.7010E+02 -2.5900E+00   1.7269E+02  0.000E+00  0.000E+00  0.000E+00  9.99836E+02  2.961E+00  4.294E+01  4.376E+00 -1.973E-01
   1   13    1     8     6    1.7269E+02 -1.9825E+00   1.7468E+02  0.000E+00  0.000E+00  0.000E+00  9.94851E+02  2.976E+00  4.315E+01  2.638E+00 -2.505E-01
   1    8    6     9     1    0.0000E+00  0.0000E+00   0.0000E+00  0.000E+00  0.000E+00  0.000E+00  1.07875E+03  0.000E+00  4.000E+00  0.000E+00  1.000E+00
   1    8    5     9     2    0.0000E+00  0.0000E+00   0.0000E+00  0.000E+00  0.000E+00  0.000E+00  1.07825E+03  0.000E+00  4.000E+00  0.000E+00  1.000E+00





UNSATURATED ZONE PACKAGE VOLUMETRIC BUDGET FOR  TIME STEP    30 STRESS PERIOD   25
  ------------------------------------------------------------------------------



     CUMULATIVE VOLUMES      L**3       RATES FOR THIS TIME STEP      L**3/T
     ------------------                 ------------------------

           IN:                                      IN:
           ---                                      ---
        INFILTRATION =  1079369208.6438          INFILTRATION =           4.4075

          OUT:                                     OUT:
          ----                                     ----
              UZF ET =   998730959.3307                UZF ET =           0.7250
        UZF RECHARGE =      654072.9065          UZF RECHARGE =       0.0000E+00

            IN - OUT =    79984176.4066              IN - OUT =           3.6825

          STORAGE:                                 STORAGE:
          --------                                 --------
      STORAGE CHANGE =    79984761.3955        STORAGE CHANGE =           3.6825

 PERCENT DISCREPANCY IS DIFFERENCE BETWEEN IN-OUT MINUS CHANGE IN STORAGE
 DIVIDED BY THE AVERAGE OF IN AND OUT TIMES 100

 PERCENT DISCREPANCY =          -0.00     PERCENT DISCREPANCY =           0.00






1
  VOLUMETRIC BUDGET FOR ENTIRE MODEL AT END OF TIME STEP   30, STRESS PERIOD  25
  ------------------------------------------------------------------------------

     CUMULATIVE VOLUMES      L**3       RATES FOR THIS TIME STEP      L**3/T
     ------------------                 ------------------------

           IN:                                      IN:
           ---                                      ---
               AG WELLS  =   176029504.0000                 AG WELLS  =           0.0000
      DIVERSION SEGMENTS =   625052736.0000        DIVERSION SEGMENTS =           0.0000
           GW IRRIGATION =           0.0000             GW IRRIGATION =           0.0000
           SW IRRIGATION =           0.0000             SW IRRIGATION =           0.0000
        SYSTEM LOSSES GW =           0.0000          SYSTEM LOSSES GW =           0.0000
        SYSTEM LOSSES SW =           0.0000          SYSTEM LOSSES SW =           0.0000

                TOTAL IN =   801082240.0000                  TOTAL IN =           0.0000

          OUT:                                     OUT:
          ----                                     ----
               AG WELLS  =           0.0000                 AG WELLS  =           0.0000
      DIVERSION SEGMENTS =           0.0000        DIVERSION SEGMENTS =           0.0000
           GW IRRIGATION =   176029504.0000             GW IRRIGATION =           0.0000
           SW IRRIGATION =   625066496.0000             SW IRRIGATION =           0.0000
        SYSTEM LOSSES GW =           0.0000          SYSTEM LOSSES GW =           0.0000
        SYSTEM LOSSES SW =           0.0000          SYSTEM LOSSES SW =           0.0000

               TOTAL OUT =   801096000.0000                 TOTAL OUT =           0.0000

                IN - OUT =      -13760.0000                  IN - OUT =           0.0000

     PERCENT DISCREPANCY =          -0.00         PERCENT DISCREPANCY =           0.00



1
  VOLUMETRIC BUDGET FOR ENTIRE MODEL AT END OF TIME STEP   30, STRESS PERIOD  25
  ------------------------------------------------------------------------------

     CUMULATIVE VOLUMES      L**3       RATES FOR THIS TIME STEP      L**3/T
     ------------------                 ------------------------

           IN:                                      IN:
           ---                                      ---
             STORAGE     =   286307584.0000               STORAGE     =           2.8008
       CONSTANT HEAD     =           0.0000         CONSTANT HEAD     =           0.0000
     HEAD DEP BOUNDS     =    18062986.0000       HEAD DEP BOUNDS     =           0.2859
      STREAM LEAKAGE     =   748776192.0000        STREAM LEAKAGE     =          11.1466
        UZF RECHARGE     =      654073.0000          UZF RECHARGE     =           0.0000
               GW ET     =           0.0000                 GW ET     =           0.0000
     SURFACE LEAKAGE     =           0.0000       SURFACE LEAKAGE     =           0.0000
           AG WELLS      =           0.0000             AG WELLS      =           0.0000

                TOTAL IN =  1053800832.0000                  TOTAL IN =          14.2333

          OUT:                                     OUT:
          ----                                     ----
             STORAGE     =   169213904.0000               STORAGE     =           3.0636
       CONSTANT HEAD     =           0.0000         CONSTANT HEAD     =           0.0000
     HEAD DEP BOUNDS     =    18364442.0000       HEAD DEP BOUNDS     =           0.2889
      STREAM LEAKAGE     =   687968384.0000        STREAM LEAKAGE     =          10.8809
        UZF RECHARGE     =           0.0000          UZF RECHARGE     =           0.0000
               GW ET     =     2231806.7500                 GW ET     =           0.0000
     SURFACE LEAKAGE     =           0.0000       SURFACE LEAKAGE     =           0.0000
           AG WELLS      =   176029504.0000             AG WELLS      =           0.0000

               TOTAL OUT =  1053808064.0000                 TOTAL OUT =          14.2333

                IN - OUT =       -7232.0000                  IN - OUT =      -7.0572E-05

     PERCENT DISCREPANCY =          -0.00         PERCENT DISCREPANCY =          -0.00






         TIME SUMMARY AT END OF TIME STEP   30 IN STRESS PERIOD   25
                    SECONDS     MINUTES      HOURS       DAYS        YEARS
                    -----------------------------------------------------------
   TIME STEP LENGTH  87667.      1461.1      24.352      1.0147     2.77799E-03
 STRESS PERIOD TIME 2.63000E+06  43833.      730.56      30.440     8.33397E-02
         TOTAL TIME 6.32067E+07 1.05345E+06  17557.      731.56      2.0029    
1
1
                            STRESS PERIOD NO.   26, LENGTH =   2630000.    
                            -----------------------------------------------

                              NUMBER OF TIME STEPS =    30

                               MULTIPLIER FOR DELT =     1.000

                            INITIAL TIME STEP SIZE =   87666.66    

 REUSING NON-PARAMETER GHB CELLS FROM LAST STRESS PERIOD

      2 GHB CELLS

 REUSING STREAM SEGMENT DATA FROM LAST STRESS PERIOD



            AREAL INFILTRATION RATE
 READING ON UNIT   19 WITH FORMAT: (10F4.0)            

            1           2           3           4           5           6           7           8           9          10
 ........................................................................................................................
   1   1.2000E-09   0.000       0.000       0.000       0.000       0.000       0.000       0.000       0.000       0.000    
   2   2.1000E-09  2.0000E-09  8.0000E-10  8.5000E-09   0.000       0.000       0.000       0.000       0.000       0.000    
   3   5.0000E-10  1.1000E-09  8.8000E-09  5.5000E-09   0.000       0.000       0.000       0.000       0.000       0.000    
   4   8.5000E-09  1.1000E-09  1.1000E-09  1.1000E-09  2.0000E-09   0.000       0.000       0.000       0.000       0.000    
   5   8.5000E-09  1.1000E-09  1.1000E-09  1.1000E-09  1.1000E-09   0.000       0.000       0.000       0.000       0.000    
   6   8.5000E-09  5.2000E-09  2.1000E-09  1.1000E-09  1.5000E-09   0.000       0.000       0.000       0.000       0.000    
   7   8.5000E-09  5.2000E-09  2.1000E-09  1.2000E-09  2.0000E-09   0.000       0.000       0.000       0.000       0.000    
   8   5.0000E-10  5.2000E-09  2.1000E-09  1.2000E-09  5.0000E-09   0.000       0.000       0.000       0.000       0.000    
   9   5.0000E-10  5.2000E-09  2.1000E-09  1.2000E-09  5.0000E-09   0.000       0.000       0.000       0.000       0.000    
  10   5.0000E-10  5.2000E-09  2.1000E-09  1.2000E-09  5.8000E-09   0.000       0.000       0.000       0.000       0.000    
  11   1.0000E-10  1.1000E-09  1.1000E-09  1.2000E-09  5.0000E-09   0.000       0.000       0.000       0.000       0.000    
  12   1.1000E-09  1.1000E-09  1.1000E-09  1.1000E-09  2.0000E-09   0.000       0.000       0.000       0.000       0.000    
  13   1.1000E-09  2.2000E-09  2.2000E-09  2.1000E-09  1.0000E-09   0.000       0.000       0.000       0.000       0.000    
  14   2.0000E-10  5.5000E-09  5.5000E-09  5.2000E-09  1.0000E-09   0.000       0.000       0.000       0.000       0.000    
  15    0.000      8.8000E-09  8.8000E-09   0.000       0.000       0.000       0.000       0.000       0.000       0.000    

                  ET RATE =  5.000000E-10

 USING ET EXTINCTION DEPTH FROM PREVIOUS STRESS PERIOD. CURRENT PERIOD IS:      26

 USING EXTINCTION WATER CONTENT FROM PREVIOUS STRESS PERIOD. CURRENT PERIOD IS:      26

 USING AIR ENTRY PRESSURE FROM PREVIOUS STRESS PERIOD. CURRENT PERIOD IS:      26

 USING ROOT PRESSURE HEAD FROM PREVIOUS STRESS PERIOD. CURRENT PERIOD IS:      26

 USING ROOT ACTIVITY FROM PREVIOUS STRESS PERIOD. CURRENT PERIOD IS:      26

 PROCESSING AG STRESS PERIOD DATA

 READING AG STRESS PERIOD DATA

 READING IRRIGATION SEGMENT

 READING IRRIGATION WELL

 READING SUPPLEMENTAL WELL

 END PROCESSING AG STRESS PERIOD DATA OPTIONS
 
 SOLVING FOR HEAD 
                                                   Max.-Head-Change                         Max.-Flux-Residual
  Residual-Control   Outer-Iter.   Inner-Iter.     Column Row Layer    Maximum-Head-Change  Column Row Layer    Maximum-Flux-Residual          L2-NORM 
          0                 1           2             4    7     1       0.7772421327E-02       4    7    1         0.4085828322E+00      0.9460216901E+00
          0                 2           2             4    7     1      -0.7560459598E-03       4    7    1        -0.4085837160E-01      0.9459732704E-01
          0                 3           1             4    7     1       0.5148391524E-04       4    7    1         0.2860086414E-02      0.6621362040E-02

    ------------------------------------------------
       NWT REQUIRED            3 OUTER ITERATIONS 
       AND A TOTAL OF          5 INNER ITERATIONS.
    ------------------------------------------------

 NO OUTPUT CONTROL FOR STRESS PERIOD   26   TIME STEP    1
 
 SOLVING FOR HEAD 
                                                   Max.-Head-Change                         Max.-Flux-Residual
  Residual-Control   Outer-Iter.   Inner-Iter.     Column Row Layer    Maximum-Head-Change  Column Row Layer    Maximum-Flux-Residual          L2-NORM 
          0                 1           2             4    7     1       0.7682844236E-02       4    7    1         0.4038501668E+00      0.9332676842E+00
          0                 2           2             4    7     1      -0.7473325196E-03       4    7    1        -0.4038510291E-01      0.9332246245E-01
          0                 3           1             4    7     1       0.5089056257E-04       4    7    1         0.2826957615E-02      0.6532142128E-02

    ------------------------------------------------
       NWT REQUIRED            3 OUTER ITERATIONS 
       AND A TOTAL OF          5 INNER ITERATIONS.
    ------------------------------------------------

 NO OUTPUT CONTROL FOR STRESS PERIOD   26   TIME STEP    2
 
 SOLVING FOR HEAD 
                                                   Max.-Head-Change                         Max.-Flux-Residual
  Residual-Control   Outer-Iter.   Inner-Iter.     Column Row Layer    Maximum-Head-Change  Column Row Layer    Maximum-Flux-Residual          L2-NORM 
          0                 1           2             4    7     1       0.7594650914E-02       4    7    1         0.3991909182E+00      0.9244224606E+00
          0                 2           2             4    7     1      -0.7387536832E-03       4    7    1        -0.3991917596E-01      0.9243762703E-01
          0                 3           1             4    7     1       0.5030637601E-04       4    7    1         0.2794342725E-02      0.6470235716E-02

    ------------------------------------------------
       NWT REQUIRED            3 OUTER ITERATIONS 
       AND A TOTAL OF          5 INNER ITERATIONS.
    ------------------------------------------------

 NO OUTPUT CONTROL FOR STRESS PERIOD   26   TIME STEP    3
 
 SOLVING FOR HEAD 
                                                   Max.-Head-Change                         Max.-Flux-Residual
  Residual-Control   Outer-Iter.   Inner-Iter.     Column Row Layer    Maximum-Head-Change  Column Row Layer    Maximum-Flux-Residual          L2-NORM 
          0                 1           2             4    7     1       0.7508078173E-02       4    7    1         0.3946181965E+00      0.9156701342E+00
          0                 2           2             4    7     1      -0.7303324861E-03       4    7    1        -0.3946190176E-01      0.9156319807E-01
          0                 3           1             4    7     1       0.4973292401E-04       4    7    1         0.2762333539E-02      0.6409105847E-02

    ------------------------------------------------
       NWT REQUIRED            3 OUTER ITERATIONS 
       AND A TOTAL OF          5 INNER ITERATIONS.
    ------------------------------------------------

 NO OUTPUT CONTROL FOR STRESS PERIOD   26   TIME STEP    4
 
 SOLVING FOR HEAD 
                                                   Max.-Head-Change                         Max.-Flux-Residual
  Residual-Control   Outer-Iter.   Inner-Iter.     Column Row Layer    Maximum-Head-Change  Column Row Layer    Maximum-Flux-Residual          L2-NORM 
          0                 1           2             4    7     1       0.7422821165E-02       4    7    1         0.3901147191E+00      0.9070745231E+00
          0                 2           2             4    7     1      -0.7220392749E-03       4    7    1        -0.3901155205E-01      0.9070425897E-01
          0                 3           1             4    7     1       0.4916818703E-04       4    7    1         0.2730809059E-02      0.6348955126E-02

    ------------------------------------------------
       NWT REQUIRED            3 OUTER ITERATIONS 
       AND A TOTAL OF          5 INNER ITERATIONS.
    ------------------------------------------------

 NO OUTPUT CONTROL FOR STRESS PERIOD   26   TIME STEP    5
 
 SOLVING FOR HEAD 
                                                   Max.-Head-Change                         Max.-Flux-Residual
  Residual-Control   Outer-Iter.   Inner-Iter.     Column Row Layer    Maximum-Head-Change  Column Row Layer    Maximum-Flux-Residual          L2-NORM 
          0                 1           2             4    7     1       0.7338855560E-02       4    7    1         0.3856794604E+00      0.8986297005E+00
          0                 2           2             4    7     1      -0.7139152826E-03       4    7    1        -0.3858310823E-01      0.8986551646E-01
          0                 3           1             4    7     1       0.4861497154E-04       4    7    1         0.2700817874E-02      0.6290338068E-02

    ------------------------------------------------
       NWT REQUIRED            3 OUTER ITERATIONS 
       AND A TOTAL OF          5 INNER ITERATIONS.
    ------------------------------------------------

 NO OUTPUT CONTROL FOR STRESS PERIOD   26   TIME STEP    6
 
 SOLVING FOR HEAD 
                                                   Max.-Head-Change                         Max.-Flux-Residual
  Residual-Control   Outer-Iter.   Inner-Iter.     Column Row Layer    Maximum-Head-Change  Column Row Layer    Maximum-Flux-Residual          L2-NORM 
          0                 1           2             4    7     1       0.7254140652E-02       4    7    1         0.3813235798E+00      0.8903209206E+00
          0                 2           2             4    7     1      -0.7056313614E-03       4    7    1        -0.3813244525E-01      0.8903000071E-01
          0                 3           1             4    7     1       0.4805086837E-04       4    7    1         0.2669271495E-02      0.6231898212E-02

    ------------------------------------------------
       NWT REQUIRED            3 OUTER ITERATIONS 
       AND A TOTAL OF          5 INNER ITERATIONS.
    ------------------------------------------------

 NO OUTPUT CONTROL FOR STRESS PERIOD   26   TIME STEP    7
 
 SOLVING FOR HEAD 
                                                   Max.-Head-Change                         Max.-Flux-Residual
  Residual-Control   Outer-Iter.   Inner-Iter.     Column Row Layer    Maximum-Head-Change  Column Row Layer    Maximum-Flux-Residual          L2-NORM 
          0                 1           2             4    7     1       0.7170881604E-02       4    7    1         0.3769187456E+00      0.8821184785E+00
          0                 2           2             4    7     1      -0.6975324906E-03       4    7    1        -0.3769195940E-01      0.8821018232E-01
          0                 3           1             4    7     1       0.4749936545E-04       4    7    1         0.2638437501E-02      0.6174522470E-02

    ------------------------------------------------
       NWT REQUIRED            3 OUTER ITERATIONS 
       AND A TOTAL OF          5 INNER ITERATIONS.
    ------------------------------------------------

 NO OUTPUT CONTROL FOR STRESS PERIOD   26   TIME STEP    8
 
 SOLVING FOR HEAD 
                                                   Max.-Head-Change                         Max.-Flux-Residual
  Residual-Control   Outer-Iter.   Inner-Iter.     Column Row Layer    Maximum-Head-Change  Column Row Layer    Maximum-Flux-Residual          L2-NORM 
          0                 1           2             4    7     1       0.7088990613E-02       4    7    1         0.3725870800E+00      0.8740478225E+00
          0                 2           2             4    7     1      -0.6895666959E-03       4    7    1        -0.3725879050E-01      0.8740344944E-01
          0                 3           1             4    7     1       0.4695692475E-04       4    7    1         0.2608115683E-02      0.6118121896E-02

    ------------------------------------------------
       NWT REQUIRED            3 OUTER ITERATIONS 
       AND A TOTAL OF          5 INNER ITERATIONS.
    ------------------------------------------------

 NO OUTPUT CONTROL FOR STRESS PERIOD   26   TIME STEP    9
 
 SOLVING FOR HEAD 
                                                   Max.-Head-Change                         Max.-Flux-Residual
  Residual-Control   Outer-Iter.   Inner-Iter.     Column Row Layer    Maximum-Head-Change  Column Row Layer    Maximum-Flux-Residual          L2-NORM 
          0                 1           2             4    7     1       0.7008708996E-02       4    7    1         0.3683411279E+00      0.8661052252E+00
          0                 2           2             4    7     1      -0.6817574501E-03       4    7    1        -0.3683419302E-01      0.8660947613E-01
          0                 3           1             4    7     1       0.4642514405E-04       4    7    1         0.2578393854E-02      0.6062616909E-02

    ------------------------------------------------
       NWT REQUIRED            3 OUTER ITERATIONS 
       AND A TOTAL OF          5 INNER ITERATIONS.
    ------------------------------------------------

 NO OUTPUT CONTROL FOR STRESS PERIOD   26   TIME STEP   10
 
 SOLVING FOR HEAD 
                                                   Max.-Head-Change                         Max.-Flux-Residual
  Residual-Control   Outer-Iter.   Inner-Iter.     Column Row Layer    Maximum-Head-Change  Column Row Layer    Maximum-Flux-Residual          L2-NORM 
          0                 1           2             4    7     1       0.6929713437E-02       4    7    1         0.3641638376E+00      0.8582823089E+00
          0                 2           2             4    7     1      -0.6740733043E-03       4    7    1        -0.3641646181E-01      0.8582745884E-01
          0                 3           1             4    7     1       0.4590188264E-04       4    7    1         0.2549152681E-02      0.6007839521E-02

    ------------------------------------------------
       NWT REQUIRED            3 OUTER ITERATIONS 
       AND A TOTAL OF          5 INNER ITERATIONS.
    ------------------------------------------------

 NO OUTPUT CONTROL FOR STRESS PERIOD   26   TIME STEP   11
 
 SOLVING FOR HEAD 
                                                   Max.-Head-Change                         Max.-Flux-Residual
  Residual-Control   Outer-Iter.   Inner-Iter.     Column Row Layer    Maximum-Head-Change  Column Row Layer    Maximum-Flux-Residual          L2-NORM 
          0                 1           2             4    7     1       0.6852246674E-02       4    7    1         0.3600680098E+00      0.8505866858E+00
          0                 2           2             4    7     1      -0.6665378698E-03       4    7    1        -0.3600687693E-01      0.8505806251E-01
          0                 3           1             4    7     1       0.4538874801E-04       4    7    1         0.2520481757E-02      0.5954004527E-02

    ------------------------------------------------
       NWT REQUIRED            3 OUTER ITERATIONS 
       AND A TOTAL OF          5 INNER ITERATIONS.
    ------------------------------------------------

 NO OUTPUT CONTROL FOR STRESS PERIOD   26   TIME STEP   12
 
 SOLVING FOR HEAD 
                                                   Max.-Head-Change                         Max.-Flux-Residual
  Residual-Control   Outer-Iter.   Inner-Iter.     Column Row Layer    Maximum-Head-Change  Column Row Layer    Maximum-Flux-Residual          L2-NORM 
          0                 1           2             4    7     1       0.6775988429E-02       4    7    1         0.3560366655E+00      0.8430017160E+00
          0                 2           2             4    7     1      -0.6591199921E-03       4    7    1        -0.3560374046E-01      0.8429967371E-01
          0                 3           1             4    7     1       0.4488361814E-04       4    7    1         0.2492262206E-02      0.5900955851E-02

    ------------------------------------------------
       NWT REQUIRED            3 OUTER ITERATIONS 
       AND A TOTAL OF          5 INNER ITERATIONS.
    ------------------------------------------------

 NO OUTPUT CONTROL FOR STRESS PERIOD   26   TIME STEP   13
 
 SOLVING FOR HEAD 
                                                   Max.-Head-Change                         Max.-Flux-Residual
  Residual-Control   Outer-Iter.   Inner-Iter.     Column Row Layer    Maximum-Head-Change  Column Row Layer    Maximum-Flux-Residual          L2-NORM 
          0                 1           2             4    7     1       0.6700913627E-02       4    7    1         0.3520679809E+00      0.8355313060E+00
          0                 2           2             4    7     1      -0.6518172317E-03       4    7    1        -0.3520687001E-01      0.8355276028E-01
          0                 3           1             4    7     1       0.4438632759E-04       4    7    1         0.2464481288E-02      0.5848643592E-02

    ------------------------------------------------
       NWT REQUIRED            3 OUTER ITERATIONS 
       AND A TOTAL OF          5 INNER ITERATIONS.
    ------------------------------------------------

 NO OUTPUT CONTROL FOR STRESS PERIOD   26   TIME STEP   14
 
 SOLVING FOR HEAD 
                                                   Max.-Head-Change                         Max.-Flux-Residual
  Residual-Control   Outer-Iter.   Inner-Iter.     Column Row Layer    Maximum-Head-Change  Column Row Layer    Maximum-Flux-Residual          L2-NORM 
          0                 1           2             4    7     1       0.6627270507E-02       4    7    1         0.3481754390E+00      0.8281787901E+00
          0                 2           2             4    7     1      -0.6446537369E-03       4    7    1        -0.3481761395E-01      0.8281769954E-01
          0                 3           1             4    7     1       0.4389852055E-04       4    7    1         0.2437233370E-02      0.5797216175E-02

    ------------------------------------------------
       NWT REQUIRED            3 OUTER ITERATIONS 
       AND A TOTAL OF          5 INNER ITERATIONS.
    ------------------------------------------------

 NO OUTPUT CONTROL FOR STRESS PERIOD   26   TIME STEP   15
 
 SOLVING FOR HEAD 
                                                   Max.-Head-Change                         Max.-Flux-Residual
  Residual-Control   Outer-Iter.   Inner-Iter.     Column Row Layer    Maximum-Head-Change  Column Row Layer    Maximum-Flux-Residual          L2-NORM 
          0                 1           2             4    7     1       0.6555012112E-02       4    7    1         0.3443571282E+00      0.8209391820E+00
          0                 2           2             4    7     1      -0.6376249384E-03       4    7    1        -0.3443578103E-01      0.8209373101E-01
          0                 3           1             4    7     1       0.4341988625E-04       4    7    1         0.2410505088E-02      0.5746558136E-02

    ------------------------------------------------
       NWT REQUIRED            3 OUTER ITERATIONS 
       AND A TOTAL OF          5 INNER ITERATIONS.
    ------------------------------------------------

 NO OUTPUT CONTROL FOR STRESS PERIOD   26   TIME STEP   16
 
 SOLVING FOR HEAD 
                                                   Max.-Head-Change                         Max.-Flux-Residual
  Residual-Control   Outer-Iter.   Inner-Iter.     Column Row Layer    Maximum-Head-Change  Column Row Layer    Maximum-Flux-Residual          L2-NORM 
          0                 1           2             4    7     1       0.6483830364E-02       4    7    1         0.3405958300E+00      0.8138005974E+00
          0                 2           2             4    7     1      -0.6307008685E-03       4    7    1        -0.3405964942E-01      0.8137995074E-01
          0                 3           1             4    7     1       0.4294838197E-04       4    7    1         0.2384175850E-02      0.5696586950E-02

    ------------------------------------------------
       NWT REQUIRED            3 OUTER ITERATIONS 
       AND A TOTAL OF          5 INNER ITERATIONS.
    ------------------------------------------------

 NO OUTPUT CONTROL FOR STRESS PERIOD   26   TIME STEP   17
 
 SOLVING FOR HEAD 
                                                   Max.-Head-Change                         Max.-Flux-Residual
  Residual-Control   Outer-Iter.   Inner-Iter.     Column Row Layer    Maximum-Head-Change  Column Row Layer    Maximum-Flux-Residual          L2-NORM 
          0                 1           2             4    7     1       0.6413699714E-02       4    7    1         0.3368903543E+00      0.8067618573E+00
          0                 2           2             4    7     1      -0.6238790428E-03       4    7    1        -0.3368910010E-01      0.8067624625E-01
          0                 3           1             4    7     1       0.4248384157E-04       4    7    1         0.2358237401E-02      0.5647324804E-02

    ------------------------------------------------
       NWT REQUIRED            3 OUTER ITERATIONS 
       AND A TOTAL OF          5 INNER ITERATIONS.
    ------------------------------------------------

 NO OUTPUT CONTROL FOR STRESS PERIOD   26   TIME STEP   18
 
 SOLVING FOR HEAD 
                                                   Max.-Head-Change                         Max.-Flux-Residual
  Residual-Control   Outer-Iter.   Inner-Iter.     Column Row Layer    Maximum-Head-Change  Column Row Layer    Maximum-Flux-Residual          L2-NORM 
          0                 1           2             4    7     1       0.6344868624E-02       4    7    1         0.3332541603E+00      0.7998268257E+00
          0                 2           2             4    7     1      -0.6171836307E-03       4    7    1        -0.3332547905E-01      0.7998263757E-01
          0                 3           1             4    7     1       0.4202790921E-04       4    7    1         0.2332783952E-02      0.5598769037E-02

    ------------------------------------------------
       NWT REQUIRED            3 OUTER ITERATIONS 
       AND A TOTAL OF          5 INNER ITERATIONS.
    ------------------------------------------------

 NO OUTPUT CONTROL FOR STRESS PERIOD   26   TIME STEP   19
 
 SOLVING FOR HEAD 
                                                   Max.-Head-Change                         Max.-Flux-Residual
  Residual-Control   Outer-Iter.   Inner-Iter.     Column Row Layer    Maximum-Head-Change  Column Row Layer    Maximum-Flux-Residual          L2-NORM 
          0                 1           2             4    7     1       0.6277035569E-02       4    7    1         0.3296705628E+00      0.7929925522E+00
          0                 2           2             4    7     1      -0.6105853001E-03       4    7    1        -0.3296711766E-01      0.7929925563E-01
          0                 3           1             4    7     1       0.4157858761E-04       4    7    1         0.2307698664E-02      0.5550933472E-02

    ------------------------------------------------
       NWT REQUIRED            3 OUTER ITERATIONS 
       AND A TOTAL OF          5 INNER ITERATIONS.
    ------------------------------------------------

 NO OUTPUT CONTROL FOR STRESS PERIOD   26   TIME STEP   20
 
 SOLVING FOR HEAD 
                                                   Max.-Head-Change                         Max.-Flux-Residual
  Residual-Control   Outer-Iter.   Inner-Iter.     Column Row Layer    Maximum-Head-Change  Column Row Layer    Maximum-Flux-Residual          L2-NORM 
          0                 1           2             4    7     1       0.6210443385E-02       4    7    1         0.3261534962E+00      0.7862530417E+00
          0                 2           2             4    7     1      -0.6041076731E-03       4    7    1        -0.3261540944E-01      0.7862531069E-01
          0                 3           1             4    7     1       0.4113748496E-04       4    7    1         0.2283079068E-02      0.5503758241E-02

    ------------------------------------------------
       NWT REQUIRED            3 OUTER ITERATIONS 
       AND A TOTAL OF          5 INNER ITERATIONS.
    ------------------------------------------------

 NO OUTPUT CONTROL FOR STRESS PERIOD   26   TIME STEP   21
 
 SOLVING FOR HEAD 
                                                   Max.-Head-Change                         Max.-Flux-Residual
  Residual-Control   Outer-Iter.   Inner-Iter.     Column Row Layer    Maximum-Head-Change  Column Row Layer    Maximum-Flux-Residual          L2-NORM 
          0                 1           2             4    7     1       0.6144790747E-02       4    7    1         0.3226859826E+00      0.7796050019E+00
          0                 2           2             4    7     1      -0.5977214391E-03       4    7    1        -0.3226865654E-01      0.7796052331E-01
          0                 3           1             4    7     1       0.4070260658E-04       4    7    1         0.2258806384E-02      0.5457237356E-02

    ------------------------------------------------
       NWT REQUIRED            3 OUTER ITERATIONS 
       AND A TOTAL OF          5 INNER ITERATIONS.
    ------------------------------------------------

 NO OUTPUT CONTROL FOR STRESS PERIOD   26   TIME STEP   22
 
 SOLVING FOR HEAD 
                                                   Max.-Head-Change                         Max.-Flux-Residual
  Residual-Control   Outer-Iter.   Inner-Iter.     Column Row Layer    Maximum-Head-Change  Column Row Layer    Maximum-Flux-Residual          L2-NORM 
          0                 1           2             4    7     1       0.6080326340E-02       4    7    1         0.3192819677E+00      0.7730477251E+00
          0                 2           2             4    7     1      -0.5914507885E-03       4    7    1        -0.3192825359E-01      0.7730480758E-01
          0                 3           1             4    7     1       0.4027559853E-04       4    7    1         0.2234978166E-02      0.5411326180E-02

    ------------------------------------------------
       NWT REQUIRED            3 OUTER ITERATIONS 
       AND A TOTAL OF          5 INNER ITERATIONS.
    ------------------------------------------------

 NO OUTPUT CONTROL FOR STRESS PERIOD   26   TIME STEP   23
 
 SOLVING FOR HEAD 
                                                   Max.-Head-Change                         Max.-Flux-Residual
  Residual-Control   Outer-Iter.   Inner-Iter.     Column Row Layer    Maximum-Head-Change  Column Row Layer    Maximum-Flux-Residual          L2-NORM 
          0                 1           2             4    7     1       0.6016750155E-02       4    7    1         0.3159247762E+00      0.7665854572E+00
          0                 2           2             4    7     1      -0.5852665384E-03       4    7    1        -0.3159253301E-01      0.7665851644E-01
          0                 3           1             4    7     1       0.3985447442E-04       4    7    1         0.2211477739E-02      0.5366073743E-02

    ------------------------------------------------
       NWT REQUIRED            3 OUTER ITERATIONS 
       AND A TOTAL OF          5 INNER ITERATIONS.
    ------------------------------------------------

 NO OUTPUT CONTROL FOR STRESS PERIOD   26   TIME STEP   24
 
 SOLVING FOR HEAD 
                                                   Max.-Head-Change                         Max.-Flux-Residual
  Residual-Control   Outer-Iter.   Inner-Iter.     Column Row Layer    Maximum-Head-Change  Column Row Layer    Maximum-Flux-Residual          L2-NORM 
          0                 1           2             4    7     1       0.5954313791E-02       4    7    1         0.3126284227E+00      0.7602110835E+00
          0                 2           2             4    7     1      -0.5791931625E-03       4    7    1        -0.3126289628E-01      0.7602113686E-01
          0                 3           1             4    7     1       0.3944090089E-04       4    7    1         0.2188403193E-02      0.5321484240E-02

    ------------------------------------------------
       NWT REQUIRED            3 OUTER ITERATIONS 
       AND A TOTAL OF          5 INNER ITERATIONS.
    ------------------------------------------------

 NO OUTPUT CONTROL FOR STRESS PERIOD   26   TIME STEP   25
 
 SOLVING FOR HEAD 
                                                   Max.-Head-Change                         Max.-Flux-Residual
  Residual-Control   Outer-Iter.   Inner-Iter.     Column Row Layer    Maximum-Head-Change  Column Row Layer    Maximum-Flux-Residual          L2-NORM 
          0                 1           2             4    7     1       0.5892717511E-02       4    7    1         0.3093763823E+00      0.7539237548E+00
          0                 2           2             4    7     1      -0.5732015043E-03       4    7    1        -0.3093769090E-01      0.7539239870E-01
          0                 3           1             4    7     1       0.3903289084E-04       4    7    1         0.2165638803E-02      0.5277462449E-02

    ------------------------------------------------
       NWT REQUIRED            3 OUTER ITERATIONS 
       AND A TOTAL OF          5 INNER ITERATIONS.
    ------------------------------------------------

 NO OUTPUT CONTROL FOR STRESS PERIOD   26   TIME STEP   26
 
 SOLVING FOR HEAD 
                                                   Max.-Head-Change                         Max.-Flux-Residual
  Residual-Control   Outer-Iter.   Inner-Iter.     Column Row Layer    Maximum-Head-Change  Column Row Layer    Maximum-Flux-Residual          L2-NORM 
          0                 1           2             4    7     1       0.5832212403E-02       4    7    1         0.3061826844E+00      0.7477231980E+00
          0                 2           2             4    7     1      -0.5673159883E-03       4    7    1        -0.3061831981E-01      0.7477233381E-01
          0                 3           1             4    7     1       0.3863210927E-04       4    7    1         0.2143282839E-02      0.5234060271E-02

    ------------------------------------------------
       NWT REQUIRED            3 OUTER ITERATIONS 
       AND A TOTAL OF          5 INNER ITERATIONS.
    ------------------------------------------------

 NO OUTPUT CONTROL FOR STRESS PERIOD   26   TIME STEP   27
 
 SOLVING FOR HEAD 
                                                   Max.-Head-Change                         Max.-Flux-Residual
  Residual-Control   Outer-Iter.   Inner-Iter.     Column Row Layer    Maximum-Head-Change  Column Row Layer    Maximum-Flux-Residual          L2-NORM 
          0                 1           2             4    7     1       0.5772774293E-02       4    7    1         0.3030455624E+00      0.7416085207E+00
          0                 2           2             4    7     1      -0.5615342619E-03       4    7    1        -0.3030460635E-01      0.7416085573E-01
          0                 3           1             4    7     1       0.3823839500E-04       4    7    1         0.2121322868E-02      0.5191278145E-02

    ------------------------------------------------
       NWT REQUIRED            3 OUTER ITERATIONS 
       AND A TOTAL OF          5 INNER ITERATIONS.
    ------------------------------------------------

 NO OUTPUT CONTROL FOR STRESS PERIOD   26   TIME STEP   28
 
 SOLVING FOR HEAD 
                                                   Max.-Head-Change                         Max.-Flux-Residual
  Residual-Control   Outer-Iter.   Inner-Iter.     Column Row Layer    Maximum-Head-Change  Column Row Layer    Maximum-Flux-Residual          L2-NORM 
          0                 1           2             4    7     1       0.5714097119E-02       4    7    1         0.2999489772E+00      0.7355675114E+00
          0                 2           2             4    7     1      -0.5558265548E-03       4    7    1        -0.2999494661E-01      0.7355674336E-01
          0                 3           1             4    7     1       0.3784972163E-04       4    7    1         0.2099646697E-02      0.5148974123E-02

    ------------------------------------------------
       NWT REQUIRED            3 OUTER ITERATIONS 
       AND A TOTAL OF          5 INNER ITERATIONS.
    ------------------------------------------------

 NO OUTPUT CONTROL FOR STRESS PERIOD   26   TIME STEP   29
 
 SOLVING FOR HEAD 
                                                   Max.-Head-Change                         Max.-Flux-Residual
  Residual-Control   Outer-Iter.   Inner-Iter.     Column Row Layer    Maximum-Head-Change  Column Row Layer    Maximum-Flux-Residual          L2-NORM 
          0                 1           2             4    7     1       0.5656176216E-02       4    7    1         0.2968918451E+00      0.7296111772E+00
          0                 2           2             4    7     1      -0.5501924132E-03       4    7    1        -0.2968923221E-01      0.7296109905E-01
          0                 3           1             4    7     1       0.3746605769E-04       4    7    1         0.2078246707E-02      0.5107278886E-02

    ------------------------------------------------
       NWT REQUIRED            3 OUTER ITERATIONS 
       AND A TOTAL OF          5 INNER ITERATIONS.
    ------------------------------------------------

 NO OUTPUT CONTROL FOR STRESS PERIOD   26   TIME STEP   30



 STREAM LISTING     PERIOD     26   STEP       30

 LAYER ROW COL. STREAM  RCH.  FLOW INTO     FLOW TO   FLOW OUT OF   OVRLND.     DIRECT     STREAM       STREAM     STREAM     STREAM   STREAMBED  STREAMBED
                SEG.NO.  NO.  STRM. RCH.    AQUIFER    STRM. RCH.    RUNOFF     PRECIP       ET          HEAD       DEPTH      WIDTH   CONDCTNC.   GRADIENT

   1    1    1     1     1    1.6500E+01  1.9759E-01   1.6303E+01  0.000E+00  0.000E+00  0.000E+00  1.09409E+03  1.039E+00  1.087E+01  4.893E-02  1.346E+00
   1    2    2     1     2    1.6303E+01  3.0466E-01   1.5998E+01  0.000E+00  0.000E+00  0.000E+00  1.08909E+03  1.034E+00  1.079E+01  7.552E-02  1.345E+00
   1    3    3     1     3    1.5998E+01  2.5853E-01   1.5739E+01  0.000E+00  0.000E+00  0.000E+00  1.08345E+03  1.029E+00  1.070E+01  6.417E-02  1.343E+00
   1    3    4     1     4    1.5739E+01  2.3700E-01   1.5502E+01  0.000E+00  0.000E+00  0.000E+00  1.07843E+03  1.024E+00  1.061E+01  5.890E-02  1.341E+00
   1    4    5     2     1    1.3502E+01  2.9865E-01   1.3204E+01  0.000E+00  0.000E+00  0.000E+00  1.07276E+03  8.289E-01  1.200E+01  7.800E-02  1.276E+00
   1    5    6     2     2    1.3204E+01  2.2914E-01   1.2975E+01  0.000E+00  0.000E+00  0.000E+00  1.06733E+03  8.190E-01  1.200E+01  6.000E-02  1.273E+00
   1    6    6     2     3    1.2975E+01  2.2862E-01   1.2746E+01  0.000E+00  0.000E+00  0.000E+00  1.06260E+03  8.104E-01  1.200E+01  6.000E-02  1.270E+00
   1    7    6     2     4    1.2746E+01  2.2810E-01   1.2518E+01  0.000E+00  0.000E+00  0.000E+00  1.05788E+03  8.017E-01  1.200E+01  6.000E-02  1.267E+00
   1    8    6     2     5    1.2518E+01  2.2758E-01   1.2290E+01  0.000E+00  0.000E+00  0.000E+00  1.05315E+03  7.930E-01  1.200E+01  6.000E-02  1.264E+00
   1    3    5     3     1    2.0000E+00  2.8252E-01   1.7175E+00  0.000E+00  0.000E+00  0.000E+00  1.07555E+03  1.909E+00  9.636E+00  7.227E-02  1.955E+00
   1    3    6     3     2    1.7175E+00  2.4905E-01   1.4684E+00  0.000E+00  0.000E+00  0.000E+00  1.07264E+03  1.727E+00  8.909E+00  6.682E-02  1.864E+00
   1    3    7     3     3    1.4684E+00  1.9718E-01   1.2712E+00  0.000E+00  0.000E+00  0.000E+00  1.06987E+03  1.555E+00  8.218E+00  5.547E-02  1.777E+00
   1    4    8     3     4    1.2712E+00  2.2567E-01   1.0456E+00  0.000E+00  0.000E+00  0.000E+00  1.06682E+03  1.364E+00  7.455E+00  6.709E-02  1.682E+00
   1    5    8     3     5    1.0456E+00  1.5790E-01   8.8768E-01  0.000E+00  0.000E+00  0.000E+00  1.06362E+03  1.164E+00  6.655E+00  4.991E-02  1.582E+00
   1    6    8     3     6    8.8768E-01  5.5980E-02   8.3170E-01  0.000E+00  0.000E+00  0.000E+00  1.06158E+03  1.036E+00  6.145E+00  1.844E-02  1.518E+00
   1    5   10     4     1    1.0000E+01  9.0919E-02   9.9091E+00  0.000E+00  0.000E+00  0.000E+00  1.07836E+03  6.368E-01  1.000E+01  2.500E-02  1.212E+00
   1    5    9     4     2    9.9091E+00  1.8158E-01   9.7275E+00  0.000E+00  0.000E+00  0.000E+00  1.07154E+03  6.315E-01  1.000E+01  5.000E-02  1.211E+00
   1    6    8     4     3    9.7275E+00  1.2689E-01   9.6006E+00  0.000E+00  0.000E+00  0.000E+00  1.06381E+03  6.256E-01  1.000E+01  3.500E-02  1.209E+00
   1    6    8     5     1    1.0432E+01  2.2686E-01   1.0205E+01  0.000E+00  0.000E+00  0.000E+00  1.05868E+03  6.790E-01  1.542E+01  6.166E-02  1.226E+00
   1    7    7     5     2    1.0205E+01  2.7894E-01   9.9265E+00  0.000E+00  0.000E+00  0.000E+00  1.05417E+03  6.732E-01  1.519E+01  7.594E-02  1.224E+00
   1    8    7     5     3    9.9265E+00  1.9221E-01   9.7343E+00  0.000E+00  0.000E+00  0.000E+00  1.04992E+03  6.676E-01  1.497E+01  5.241E-02  1.223E+00
   1    8    6     5     4    9.7343E+00  1.3577E-01   9.5985E+00  0.000E+00  0.000E+00  0.000E+00  1.04691E+03  6.637E-01  1.482E+01  3.706E-02  1.221E+00
   1    9    6     6     1    2.1889E+01  2.4742E-01   2.1641E+01  0.000E+00  0.000E+00  0.000E+00  1.04385E+03  1.124E+00  1.200E+01  6.000E-02  1.375E+00
   1   10    7     6     2    2.1641E+01  2.4696E-01   2.1395E+01  0.000E+00  0.000E+00  0.000E+00  1.03930E+03  1.116E+00  1.200E+01  6.000E-02  1.372E+00
   1   11    7     6     3    2.1395E+01  2.4650E-01   2.1148E+01  0.000E+00  0.000E+00  0.000E+00  1.03474E+03  1.108E+00  1.200E+01  6.000E-02  1.369E+00
   1   12    7     6     4    2.1148E+01  2.4603E-01   2.0902E+01  0.000E+00  0.000E+00  0.000E+00  1.03019E+03  1.101E+00  1.200E+01  6.000E-02  1.367E+00
   1   13    7     6     5    2.0902E+01 -1.8156E-02   2.0920E+01  0.000E+00  0.000E+00  0.000E+00  1.02701E+03  1.097E+00  1.200E+01  2.400E-01 -2.522E-02
   1   14    9     7     1    1.5000E+02  1.3376E+00   1.4866E+02  0.000E+00  0.000E+00  0.000E+00  1.03987E+03  2.288E+00  5.529E+01  5.593E-01  7.972E-01
   1   13    8     7     2    1.4866E+02  1.8322E+00   1.4683E+02  0.000E+00  0.000E+00  0.000E+00  1.03478E+03  2.279E+00  5.526E+01  6.148E-01  9.934E-01
   1   13    7     7     3    1.4683E+02  1.4565E+00   1.4537E+02  0.000E+00  0.000E+00  0.000E+00  1.02969E+03  2.271E+00  5.522E+01  5.585E-01  8.694E-01
   1   13    6     8     1    1.6629E+02  8.8600E-01   1.6541E+02  0.000E+00  0.000E+00  0.000E+00  1.02480E+03  2.925E+00  4.241E+01  4.322E-01  6.833E-01
   1   13    5     8     2    1.6541E+02  1.4379E-01   1.6526E+02  0.000E+00  0.000E+00  0.000E+00  1.01855E+03  2.922E+00  4.236E+01  4.317E-01  1.110E-01
   1   13    4     8     3    1.6526E+02 -2.5432E+00   1.6781E+02  0.000E+00  0.000E+00  0.000E+00  1.01230E+03  2.929E+00  4.248E+01  4.329E+00 -1.958E-01
   1   13    3     8     4    1.6781E+02 -3.6928E+00   1.7150E+02  0.000E+00  0.000E+00  0.000E+00  1.00607E+03  2.950E+00  4.277E+01  4.359E+00 -2.824E-01
   1   13    2     8     5    1.7150E+02 -2.5807E+00   1.7408E+02  0.000E+00  0.000E+00  0.000E+00  9.99845E+02  2.970E+00  4.307E+01  4.389E+00 -1.960E-01
   1   13    1     8     6    1.7408E+02 -1.9757E+00   1.7606E+02  0.000E+00  0.000E+00  0.000E+00  9.94860E+02  2.985E+00  4.328E+01  2.646E+00 -2.489E-01
   1    8    6     9     1    0.0000E+00  0.0000E+00   0.0000E+00  0.000E+00  0.000E+00  0.000E+00  1.07875E+03  0.000E+00  4.000E+00  0.000E+00  1.000E+00
   1    8    5     9     2    0.0000E+00  0.0000E+00   0.0000E+00  0.000E+00  0.000E+00  0.000E+00  1.07825E+03  0.000E+00  4.000E+00  0.000E+00  1.000E+00





UNSATURATED ZONE PACKAGE VOLUMETRIC BUDGET FOR  TIME STEP    30 STRESS PERIOD   26
  ------------------------------------------------------------------------------



     CUMULATIVE VOLUMES      L**3       RATES FOR THIS TIME STEP      L**3/T
     ------------------                 ------------------------

           IN:                                      IN:
           ---                                      ---
        INFILTRATION =  1090960933.2019          INFILTRATION =           4.4075

          OUT:                                     OUT:
          ----                                     ----
              UZF ET =  1000637727.1918                UZF ET =           0.7250
        UZF RECHARGE =      654072.9065          UZF RECHARGE =       0.0000E+00

            IN - OUT =    89669133.1036              IN - OUT =           3.6825

          STORAGE:                                 STORAGE:
          --------                                 --------
      STORAGE CHANGE =    89669718.0253        STORAGE CHANGE =           3.6825

 PERCENT DISCREPANCY IS DIFFERENCE BETWEEN IN-OUT MINUS CHANGE IN STORAGE
 DIVIDED BY THE AVERAGE OF IN AND OUT TIMES 100

 PERCENT DISCREPANCY =          -0.00     PERCENT DISCREPANCY =           0.00






1
  VOLUMETRIC BUDGET FOR ENTIRE MODEL AT END OF TIME STEP   30, STRESS PERIOD  26
  ------------------------------------------------------------------------------

     CUMULATIVE VOLUMES      L**3       RATES FOR THIS TIME STEP      L**3/T
     ------------------                 ------------------------

           IN:                                      IN:
           ---                                      ---
               AG WELLS  =   176029504.0000                 AG WELLS  =           0.0000
      DIVERSION SEGMENTS =   625052736.0000        DIVERSION SEGMENTS =           0.0000
           GW IRRIGATION =           0.0000             GW IRRIGATION =           0.0000
           SW IRRIGATION =           0.0000             SW IRRIGATION =           0.0000
        SYSTEM LOSSES GW =           0.0000          SYSTEM LOSSES GW =           0.0000
        SYSTEM LOSSES SW =           0.0000          SYSTEM LOSSES SW =           0.0000

                TOTAL IN =   801082240.0000                  TOTAL IN =           0.0000

          OUT:                                     OUT:
          ----                                     ----
               AG WELLS  =           0.0000                 AG WELLS  =           0.0000
      DIVERSION SEGMENTS =           0.0000        DIVERSION SEGMENTS =           0.0000
           GW IRRIGATION =   176029504.0000             GW IRRIGATION =           0.0000
           SW IRRIGATION =   625066496.0000             SW IRRIGATION =           0.0000
        SYSTEM LOSSES GW =           0.0000          SYSTEM LOSSES GW =           0.0000
        SYSTEM LOSSES SW =           0.0000          SYSTEM LOSSES SW =           0.0000

               TOTAL OUT =   801096000.0000                 TOTAL OUT =           0.0000

                IN - OUT =      -13760.0000                  IN - OUT =           0.0000

     PERCENT DISCREPANCY =          -0.00         PERCENT DISCREPANCY =           0.00



1
  VOLUMETRIC BUDGET FOR ENTIRE MODEL AT END OF TIME STEP   30, STRESS PERIOD  26
  ------------------------------------------------------------------------------

     CUMULATIVE VOLUMES      L**3       RATES FOR THIS TIME STEP      L**3/T
     ------------------                 ------------------------

           IN:                                      IN:
           ---                                      ---
             STORAGE     =   292589120.0000               STORAGE     =           2.1275
       CONSTANT HEAD     =           0.0000         CONSTANT HEAD     =           0.0000
     HEAD DEP BOUNDS     =    18814818.0000       HEAD DEP BOUNDS     =           0.2859
      STREAM LEAKAGE     =   778347904.0000        STREAM LEAKAGE     =          11.2543
        UZF RECHARGE     =      654073.0000          UZF RECHARGE     =           0.0000
               GW ET     =           0.0000                 GW ET     =           0.0000
     SURFACE LEAKAGE     =           0.0000       SURFACE LEAKAGE     =           0.0000
           AG WELLS      =           0.0000             AG WELLS      =           0.0000

                TOTAL IN =  1090405888.0000                  TOTAL IN =          13.6677

          OUT:                                     OUT:
          ----                                     ----
             STORAGE     =   176650064.0000               STORAGE     =           2.5683
       CONSTANT HEAD     =           0.0000         CONSTANT HEAD     =           0.0000
     HEAD DEP BOUNDS     =    19124468.0000       HEAD DEP BOUNDS     =           0.2890
      STREAM LEAKAGE     =   716377600.0000        STREAM LEAKAGE     =          10.8105
        UZF RECHARGE     =           0.0000          UZF RECHARGE     =           0.0000
               GW ET     =     2231806.7500                 GW ET     =           0.0000
     SURFACE LEAKAGE     =           0.0000       SURFACE LEAKAGE     =           0.0000
           AG WELLS      =   176029504.0000             AG WELLS      =           0.0000

               TOTAL OUT =  1090413440.0000                 TOTAL OUT =          13.6678

                IN - OUT =       -7552.0000                  IN - OUT =      -1.2207E-04

     PERCENT DISCREPANCY =          -0.00         PERCENT DISCREPANCY =          -0.00






         TIME SUMMARY AT END OF TIME STEP   30 IN STRESS PERIOD   26
                    SECONDS     MINUTES      HOURS       DAYS        YEARS
                    -----------------------------------------------------------
   TIME STEP LENGTH  87667.      1461.1      24.352      1.0147     2.77799E-03
 STRESS PERIOD TIME 2.63000E+06  43833.      730.56      30.440     8.33397E-02
         TOTAL TIME 6.58368E+07 1.09728E+06  18288.      762.00      2.0862    
1
1
                            STRESS PERIOD NO.   27, LENGTH =   2630000.    
                            -----------------------------------------------

                              NUMBER OF TIME STEPS =    30

                               MULTIPLIER FOR DELT =     1.000

                            INITIAL TIME STEP SIZE =   87666.66    

 REUSING NON-PARAMETER GHB CELLS FROM LAST STRESS PERIOD

      2 GHB CELLS

 REUSING STREAM SEGMENT DATA FROM LAST STRESS PERIOD



            AREAL INFILTRATION RATE
 READING ON UNIT   19 WITH FORMAT: (10F4.0)            

            1           2           3           4           5           6           7           8           9          10
 ........................................................................................................................
   1   1.2000E-09   0.000       0.000       0.000       0.000       0.000       0.000       0.000       0.000       0.000    
   2   2.1000E-09  2.0000E-09  8.0000E-10  8.5000E-09   0.000       0.000       0.000       0.000       0.000       0.000    
   3   5.0000E-10  1.1000E-09  8.8000E-09  5.5000E-09   0.000       0.000       0.000       0.000       0.000       0.000    
   4   8.5000E-09  1.1000E-09  1.1000E-09  1.1000E-09  2.0000E-09   0.000       0.000       0.000       0.000       0.000    
   5   8.5000E-09  1.1000E-09  1.1000E-09  1.1000E-09  1.1000E-09   0.000       0.000       0.000       0.000       0.000    
   6   8.5000E-09  5.2000E-09  2.1000E-09  1.1000E-09  1.5000E-09   0.000       0.000       0.000       0.000       0.000    
   7   8.5000E-09  5.2000E-09  2.1000E-09  1.2000E-09  2.0000E-09   0.000       0.000       0.000       0.000       0.000    
   8   5.0000E-10  5.2000E-09  2.1000E-09  1.2000E-09  5.0000E-09   0.000       0.000       0.000       0.000       0.000    
   9   5.0000E-10  5.2000E-09  2.1000E-09  1.2000E-09  5.0000E-09   0.000       0.000       0.000       0.000       0.000    
  10   5.0000E-10  5.2000E-09  2.1000E-09  1.2000E-09  5.8000E-09   0.000       0.000       0.000       0.000       0.000    
  11   1.0000E-10  1.1000E-09  1.1000E-09  1.2000E-09  5.0000E-09   0.000       0.000       0.000       0.000       0.000    
  12   1.1000E-09  1.1000E-09  1.1000E-09  1.1000E-09  2.0000E-09   0.000       0.000       0.000       0.000       0.000    
  13   1.1000E-09  2.2000E-09  2.2000E-09  2.1000E-09  1.0000E-09   0.000       0.000       0.000       0.000       0.000    
  14   2.0000E-10  5.5000E-09  5.5000E-09  5.2000E-09  1.0000E-09   0.000       0.000       0.000       0.000       0.000    
  15    0.000      8.8000E-09  8.8000E-09   0.000       0.000       0.000       0.000       0.000       0.000       0.000    

                  ET RATE =  5.000000E-10

 USING ET EXTINCTION DEPTH FROM PREVIOUS STRESS PERIOD. CURRENT PERIOD IS:      27

 USING EXTINCTION WATER CONTENT FROM PREVIOUS STRESS PERIOD. CURRENT PERIOD IS:      27

 USING AIR ENTRY PRESSURE FROM PREVIOUS STRESS PERIOD. CURRENT PERIOD IS:      27

 USING ROOT PRESSURE HEAD FROM PREVIOUS STRESS PERIOD. CURRENT PERIOD IS:      27

 USING ROOT ACTIVITY FROM PREVIOUS STRESS PERIOD. CURRENT PERIOD IS:      27

 PROCESSING AG STRESS PERIOD DATA

 READING AG STRESS PERIOD DATA

 READING IRRIGATION SEGMENT

 READING IRRIGATION WELL

 READING SUPPLEMENTAL WELL

 END PROCESSING AG STRESS PERIOD DATA OPTIONS
 
 SOLVING FOR HEAD 
                                                   Max.-Head-Change                         Max.-Flux-Residual
  Residual-Control   Outer-Iter.   Inner-Iter.     Column Row Layer    Maximum-Head-Change  Column Row Layer    Maximum-Flux-Residual          L2-NORM 
          0                 1           2             4    7     1       0.5599267168E-02       4    7    1         0.2938887109E+00      0.7237392803E+00
          0                 2           2             4    7     1      -0.5446566976E-03       4    7    1        -0.2938891764E-01      0.7237417328E-01
          0                 3           1             4    7     1       0.3708909610E-04       4    7    1         0.2057224685E-02      0.5066420976E-02

    ------------------------------------------------
       NWT REQUIRED            3 OUTER ITERATIONS 
       AND A TOTAL OF          5 INNER ITERATIONS.
    ------------------------------------------------

 NO OUTPUT CONTROL FOR STRESS PERIOD   27   TIME STEP    1
 
 SOLVING FOR HEAD 
                                                   Max.-Head-Change                         Max.-Flux-Residual
  Residual-Control   Outer-Iter.   Inner-Iter.     Column Row Layer    Maximum-Head-Change  Column Row Layer    Maximum-Flux-Residual          L2-NORM 
          0                 1           2             4    7     1       0.5543355595E-02       4    7    1         0.2909380401E+00      0.7203390819E+00
          0                 2           2             4    7     1      -0.5392180099E-03       4    7    1        -0.2909384944E-01      0.7201380037E-01
          0                 3           1             4    7     1       0.3671874196E-04       4    7    1         0.2036569922E-02      0.5039450364E-02

    ------------------------------------------------
       NWT REQUIRED            3 OUTER ITERATIONS 
       AND A TOTAL OF          5 INNER ITERATIONS.
    ------------------------------------------------

 NO OUTPUT CONTROL FOR STRESS PERIOD   27   TIME STEP    2
 
 SOLVING FOR HEAD 
                                                   Max.-Head-Change                         Max.-Flux-Residual
  Residual-Control   Outer-Iter.   Inner-Iter.     Column Row Layer    Maximum-Head-Change  Column Row Layer    Maximum-Flux-Residual          L2-NORM 
          0                 1           2             4    7     1       0.5488256513E-02       4   13    1         0.3149326284E+00      0.9204348257E+00
          0                 2           2             7   13     1      -0.1424269257E-02       7   13    1        -0.7901868872E-01      0.1190590916E+00
          0                 3           1             7   13     1       0.9696050950E-04       7   13    1         0.5529752588E-02      0.8260627043E-02

    ------------------------------------------------
       NWT REQUIRED            3 OUTER ITERATIONS 
       AND A TOTAL OF          5 INNER ITERATIONS.
    ------------------------------------------------

 NO OUTPUT CONTROL FOR STRESS PERIOD   27   TIME STEP    3
 
 SOLVING FOR HEAD 
                                                   Max.-Head-Change                         Max.-Flux-Residual
  Residual-Control   Outer-Iter.   Inner-Iter.     Column Row Layer    Maximum-Head-Change  Column Row Layer    Maximum-Flux-Residual          L2-NORM 
          0                 1           2             4    7     1       0.5434215595E-02       4   13    1         0.2861724479E+00      0.8876031215E+00
          0                 2           2             4    7     1      -0.5286016306E-03       4    7    1        -0.2851679082E-01      0.8792882710E-01
          0                 3           1             4    7     1       0.3599580523E-04       4    7    1         0.1996175808E-02      0.6078666199E-02

    ------------------------------------------------
       NWT REQUIRED            3 OUTER ITERATIONS 
       AND A TOTAL OF          5 INNER ITERATIONS.
    ------------------------------------------------

 NO OUTPUT CONTROL FOR STRESS PERIOD   27   TIME STEP    4
 
 SOLVING FOR HEAD 
                                                   Max.-Head-Change                         Max.-Flux-Residual
  Residual-Control   Outer-Iter.   Inner-Iter.     Column Row Layer    Maximum-Head-Change  Column Row Layer    Maximum-Flux-Residual          L2-NORM 
          0                 1           2             4    7     1       0.5381194381E-02       4    7    1         0.2823655163E+00      0.8603677994E+00
          0                 2           2             4    7     1      -0.5234440969E-03       4    7    1        -0.2823659377E-01      0.8530798542E-01
          0                 3           1             4    7     1       0.3564459629E-04       4    7    1         0.1976562026E-02      0.5904276770E-02

    ------------------------------------------------
       NWT REQUIRED            3 OUTER ITERATIONS 
       AND A TOTAL OF          5 INNER ITERATIONS.
    ------------------------------------------------

 NO OUTPUT CONTROL FOR STRESS PERIOD   27   TIME STEP    5
 
 SOLVING FOR HEAD 
                                                   Max.-Head-Change                         Max.-Flux-Residual
  Residual-Control   Outer-Iter.   Inner-Iter.     Column Row Layer    Maximum-Head-Change  Column Row Layer    Maximum-Flux-Residual          L2-NORM 
          0                 1           2             4    7     1       0.5328903499E-02       4    7    1         0.2796016395E+00      0.8360997541E+00
          0                 2           2             4    7     1      -0.5183576048E-03       4    7    1        -0.2796020507E-01      0.8297391323E-01
          0                 3           1             4    7     1       0.3529822543E-04       4    7    1         0.1957214809E-02      0.5749839133E-02

    ------------------------------------------------
       NWT REQUIRED            3 OUTER ITERATIONS 
       AND A TOTAL OF          5 INNER ITERATIONS.
    ------------------------------------------------

 NO OUTPUT CONTROL FOR STRESS PERIOD   27   TIME STEP    6
 
 SOLVING FOR HEAD 
                                                   Max.-Head-Change                         Max.-Flux-Residual
  Residual-Control   Outer-Iter.   Inner-Iter.     Column Row Layer    Maximum-Head-Change  Column Row Layer    Maximum-Flux-Residual          L2-NORM 
          0                 1           2             4    7     1       0.5277315937E-02       4    7    1         0.2768756293E+00      0.8143953727E+00
          0                 2           2             4    7     1      -0.5133395266E-03       4    7    1        -0.2768760302E-01      0.8088437139E-01
          0                 3           1             4    7     1       0.3495651325E-04       4    7    1         0.1938132675E-02      0.5611577390E-02

    ------------------------------------------------
       NWT REQUIRED            3 OUTER ITERATIONS 
       AND A TOTAL OF          5 INNER ITERATIONS.
    ------------------------------------------------

 NO OUTPUT CONTROL FOR STRESS PERIOD   27   TIME STEP    7
 
 SOLVING FOR HEAD 
                                                   Max.-Head-Change                         Max.-Flux-Residual
  Residual-Control   Outer-Iter.   Inner-Iter.     Column Row Layer    Maximum-Head-Change  Column Row Layer    Maximum-Flux-Residual          L2-NORM 
          0                 1           2             4    7     1       0.5226958320E-02       4    7    1         0.2742156599E+00      0.7949637671E+00
          0                 2           2             4    7     1      -0.5084410896E-03       4    7    1        -0.2742160514E-01      0.7901168365E-01
          0                 3           1             4    7     1       0.3462294759E-04       4    7    1         0.1919512803E-02      0.5486471008E-02

    ------------------------------------------------
       NWT REQUIRED            3 OUTER ITERATIONS 
       AND A TOTAL OF          5 INNER ITERATIONS.
    ------------------------------------------------

 NO OUTPUT CONTROL FOR STRESS PERIOD   27   TIME STEP    8
 
 SOLVING FOR HEAD 
                                                   Max.-Head-Change                         Max.-Flux-Residual
  Residual-Control   Outer-Iter.   Inner-Iter.     Column Row Layer    Maximum-Head-Change  Column Row Layer    Maximum-Flux-Residual          L2-NORM 
          0                 1           2             4    7     1       0.5177248257E-02       4    7    1         0.2715898866E+00      0.7775057671E+00
          0                 2           2             4    7     1      -0.5036056425E-03       4    7    1        -0.2715902688E-01      0.7732864988E-01
          0                 3           1             4    7     1       0.3429367188E-04       4    7    1         0.1901132346E-02      0.5374528108E-02

    ------------------------------------------------
       NWT REQUIRED            3 OUTER ITERATIONS 
       AND A TOTAL OF          5 INNER ITERATIONS.
    ------------------------------------------------

 NO OUTPUT CONTROL FOR STRESS PERIOD   27   TIME STEP    9
 
 SOLVING FOR HEAD 
                                                   Max.-Head-Change                         Max.-Flux-Residual
  Residual-Control   Outer-Iter.   Inner-Iter.     Column Row Layer    Maximum-Head-Change  Column Row Layer    Maximum-Flux-Residual          L2-NORM 
          0                 1           2             4    7     1       0.5128171034E-02       4    7    1         0.2689976880E+00      0.7617689715E+00
          0                 2           2             4    7     1      -0.4988317533E-03       4    7    1        -0.2689980609E-01      0.7581067574E-01
          0                 3           1             4    7     1       0.3396858813E-04       4    7    1         0.1882986891E-02      0.5273040750E-02

    ------------------------------------------------
       NWT REQUIRED            3 OUTER ITERATIONS 
       AND A TOTAL OF          5 INNER ITERATIONS.
    ------------------------------------------------

 NO OUTPUT CONTROL FOR STRESS PERIOD   27   TIME STEP   10
 
 SOLVING FOR HEAD 
                                                   Max.-Head-Change                         Max.-Flux-Residual
  Residual-Control   Outer-Iter.   Inner-Iter.     Column Row Layer    Maximum-Head-Change  Column Row Layer    Maximum-Flux-Residual          L2-NORM 
          0                 1           2             4    7     1       0.5079987623E-02       4    7    1         0.2664530890E+00      0.7475299471E+00
          0                 2           2             4    7     1      -0.4941448083E-03       4    7    1        -0.2664534532E-01      0.7443403383E-01
          0                 3           1             4    7     1       0.3364942475E-04       4    7    1         0.1865174627E-02      0.5180944803E-02

    ------------------------------------------------
       NWT REQUIRED            3 OUTER ITERATIONS 
       AND A TOTAL OF          5 INNER ITERATIONS.
    ------------------------------------------------

 NO OUTPUT CONTROL FOR STRESS PERIOD   27   TIME STEP   11
 
 SOLVING FOR HEAD 
                                                   Max.-Head-Change                         Max.-Flux-Residual
  Residual-Control   Outer-Iter.   Inner-Iter.     Column Row Layer    Maximum-Head-Change  Column Row Layer    Maximum-Flux-Residual          L2-NORM 
          0                 1           2             4    7     1       0.5032659984E-02       4    7    1         0.2639548330E+00      0.7345790100E+00
          0                 2           2             4    7     1      -0.4895411072E-03       4    7    1        -0.2639551886E-01      0.7318052119E-01
          0                 3           1             4    7     1       0.3333592994E-04       4    7    1         0.1847686805E-02      0.5097163715E-02

    ------------------------------------------------
       NWT REQUIRED            3 OUTER ITERATIONS 
       AND A TOTAL OF          5 INNER ITERATIONS.
    ------------------------------------------------

 NO OUTPUT CONTROL FOR STRESS PERIOD   27   TIME STEP   12
 
 SOLVING FOR HEAD 
                                                   Max.-Head-Change                         Max.-Flux-Residual
  Residual-Control   Outer-Iter.   Inner-Iter.     Column Row Layer    Maximum-Head-Change  Column Row Layer    Maximum-Flux-Residual          L2-NORM 
          0                 1           2             4    7     1       0.4986175545E-02       4    7    1         0.2615009476E+00      0.7227880360E+00
          0                 2           2             4    7     1      -0.4850194271E-03       4    7    1        -0.2615012953E-01      0.7203777934E-01
          0                 3           1             4    7     1       0.3302802038E-04       4    7    1         0.1830509531E-02      0.5020559781E-02

    ------------------------------------------------
       NWT REQUIRED            3 OUTER ITERATIONS 
       AND A TOTAL OF          5 INNER ITERATIONS.
    ------------------------------------------------

 NO OUTPUT CONTROL FOR STRESS PERIOD   27   TIME STEP   13
 
 SOLVING FOR HEAD 
                                                   Max.-Head-Change                         Max.-Flux-Residual
  Residual-Control   Outer-Iter.   Inner-Iter.     Column Row Layer    Maximum-Head-Change  Column Row Layer    Maximum-Flux-Residual          L2-NORM 
          0                 1           2             4    7     1       0.4940233301E-02       4    7    1         0.2590759928E+00      0.7119718829E+00
          0                 2           2             4    7     1      -0.4805504874E-03       4    7    1        -0.2590763324E-01      0.7098803567E-01
          0                 3           1             4    7     1       0.3272370210E-04       4    7    1         0.1813534786E-02      0.4949563076E-02

    ------------------------------------------------
       NWT REQUIRED            3 OUTER ITERATIONS 
       AND A TOTAL OF          5 INNER ITERATIONS.
    ------------------------------------------------

 NO OUTPUT CONTROL FOR STRESS PERIOD   27   TIME STEP   14
 
 SOLVING FOR HEAD 
                                                   Max.-Head-Change                         Max.-Flux-Residual
  Residual-Control   Outer-Iter.   Inner-Iter.     Column Row Layer    Maximum-Head-Change  Column Row Layer    Maximum-Flux-Residual          L2-NORM 
          0                 1           2             4    7     1       0.4895095864E-02       4    7    1         0.2566939384E+00      0.7020191954E+00
          0                 2           2             4    7     1      -0.4761598349E-03       4    7    1        -0.2566942705E-01      0.7002089200E-01
          0                 3           1             4    7     1       0.3242471560E-04       4    7    1         0.1796860379E-02      0.4884897672E-02

    ------------------------------------------------
       NWT REQUIRED            3 OUTER ITERATIONS 
       AND A TOTAL OF          5 INNER ITERATIONS.
    ------------------------------------------------

 NO OUTPUT CONTROL FOR STRESS PERIOD   27   TIME STEP   15
 
 SOLVING FOR HEAD 
                                                   Max.-Head-Change                         Max.-Flux-Residual
  Residual-Control   Outer-Iter.   Inner-Iter.     Column Row Layer    Maximum-Head-Change  Column Row Layer    Maximum-Flux-Residual          L2-NORM 
          0                 1           2             4    7     1       0.4850470583E-02       4    7    1         0.2543388236E+00      0.6927966262E+00
          0                 2           2             4    7     1      -0.4718190004E-03       4    7    1        -0.2543391481E-01      0.6912149708E-01
          0                 3           1             4    7     1       0.3212912086E-04       4    7    1         0.1780374511E-02      0.4823344587E-02

    ------------------------------------------------
       NWT REQUIRED            3 OUTER ITERATIONS 
       AND A TOTAL OF          5 INNER ITERATIONS.
    ------------------------------------------------

 NO OUTPUT CONTROL FOR STRESS PERIOD   27   TIME STEP   16
 
 SOLVING FOR HEAD 
                                                   Max.-Head-Change                         Max.-Flux-Residual
  Residual-Control   Outer-Iter.   Inner-Iter.     Column Row Layer    Maximum-Head-Change  Column Row Layer    Maximum-Flux-Residual          L2-NORM 
          0                 1           2             4    7     1       0.4806614062E-02       4    7    1         0.2520250521E+00      0.6842524106E+00
          0                 2           2             4    7     1      -0.4675529459E-03       4    7    1        -0.2520253694E-01      0.6828838883E-01
          0                 3           1             4    7     1       0.3183861814E-04       4    7    1         0.1764178039E-02      0.4767729547E-02

    ------------------------------------------------
       NWT REQUIRED            3 OUTER ITERATIONS 
       AND A TOTAL OF          5 INNER ITERATIONS.
    ------------------------------------------------

 NO OUTPUT CONTROL FOR STRESS PERIOD   27   TIME STEP   17
 
 SOLVING FOR HEAD 
                                                   Max.-Head-Change                         Max.-Flux-Residual
  Residual-Control   Outer-Iter.   Inner-Iter.     Column Row Layer    Maximum-Head-Change  Column Row Layer    Maximum-Flux-Residual          L2-NORM 
          0                 1           2             4    7     1       0.4763506016E-02       4    7    1         0.2497511397E+00      0.6762768214E+00
          0                 2           2             4    7     1      -0.4633596981E-03       4    7    1        -0.2497514498E-01      0.6750880748E-01
          0                 3           1             4    7     1       0.3155307373E-04       4    7    1         0.1748260612E-02      0.4714677787E-02

    ------------------------------------------------
       NWT REQUIRED            3 OUTER ITERATIONS 
       AND A TOTAL OF          5 INNER ITERATIONS.
    ------------------------------------------------

 NO OUTPUT CONTROL FOR STRESS PERIOD   27   TIME STEP   18
 
 SOLVING FOR HEAD 
                                                   Max.-Head-Change                         Max.-Flux-Residual
  Residual-Control   Outer-Iter.   Inner-Iter.     Column Row Layer    Maximum-Head-Change  Column Row Layer    Maximum-Flux-Residual          L2-NORM 
          0                 1           2             4    7     1       0.4721128774E-02       4    7    1         0.2475160349E+00      0.6688178381E+00
          0                 2           2             4    7     1      -0.4592375376E-03       4    7    1        -0.2475163380E-01      0.6677837456E-01
          0                 3           1             4    7     1       0.3127237000E-04       4    7    1         0.1732614818E-02      0.4665131437E-02

    ------------------------------------------------
       NWT REQUIRED            3 OUTER ITERATIONS 
       AND A TOTAL OF          5 INNER ITERATIONS.
    ------------------------------------------------

 NO OUTPUT CONTROL FOR STRESS PERIOD   27   TIME STEP   19
 
 SOLVING FOR HEAD 
                                                   Max.-Head-Change                         Max.-Flux-Residual
  Residual-Control   Outer-Iter.   Inner-Iter.     Column Row Layer    Maximum-Head-Change  Column Row Layer    Maximum-Flux-Residual          L2-NORM 
          0                 1           2             4    7     1       0.4679193947E-02       4    7    1         0.2453040321E+00      0.6643331119E+00
          0                 2           2             4    7     1      -0.4551584127E-03       4    7    1        -0.2453043287E-01      0.6681567199E-01
          0                 3           1             4    7     1       0.3099459605E-04       4    7    1         0.1717130743E-02      0.4838995046E-02

    ------------------------------------------------
       NWT REQUIRED            3 OUTER ITERATIONS 
       AND A TOTAL OF          5 INNER ITERATIONS.
    ------------------------------------------------

 NO OUTPUT CONTROL FOR STRESS PERIOD   27   TIME STEP   20
 
 SOLVING FOR HEAD 
                                                   Max.-Head-Change                         Max.-Flux-Residual
  Residual-Control   Outer-Iter.   Inner-Iter.     Column Row Layer    Maximum-Head-Change  Column Row Layer    Maximum-Flux-Residual          L2-NORM 
          0                 1           2             4    7     1       0.4637958670E-02       4    7    1         0.2431297573E+00      0.6598760121E+00
          0                 2           2             4    7     1      -0.4511473354E-03       4    7    1        -0.2431300475E-01      0.6648544303E-01
          0                 3           1             4    7     1       0.3072145687E-04       4    7    1         0.1701910794E-02      0.4859541104E-02

    ------------------------------------------------
       NWT REQUIRED            3 OUTER ITERATIONS 
       AND A TOTAL OF          5 INNER ITERATIONS.
    ------------------------------------------------

 NO OUTPUT CONTROL FOR STRESS PERIOD   27   TIME STEP   21
 
 SOLVING FOR HEAD 
                                                   Max.-Head-Change                         Max.-Flux-Residual
  Residual-Control   Outer-Iter.   Inner-Iter.     Column Row Layer    Maximum-Head-Change  Column Row Layer    Maximum-Flux-Residual          L2-NORM 
          0                 1           2             4    7     1       0.4597140891E-02       4    7    1         0.2409769636E+00      0.6525656434E+00
          0                 2           2             4    7     1      -0.4471768696E-03       4    7    1        -0.2409772475E-01      0.6565082168E-01
          0                 3           1             4    7     1       0.3045108298E-04       4    7    1         0.1686841190E-02      0.4760323635E-02

    ------------------------------------------------
       NWT REQUIRED            3 OUTER ITERATIONS 
       AND A TOTAL OF          5 INNER ITERATIONS.
    ------------------------------------------------

 NO OUTPUT CONTROL FOR STRESS PERIOD   27   TIME STEP   22
 
 SOLVING FOR HEAD 
                                                   Max.-Head-Change                         Max.-Flux-Residual
  Residual-Control   Outer-Iter.   Inner-Iter.     Column Row Layer    Maximum-Head-Change  Column Row Layer    Maximum-Flux-Residual          L2-NORM 
          0                 1           2             4    7     1       0.4557002169E-02       4    7    1         0.2388606063E+00      0.6457731187E+00
          0                 2           2             4    7     1      -0.4432724572E-03       4    7    1        -0.2388608840E-01      0.6488939337E-01
          0                 3           1             4    7     1       0.3018520754E-04       4    7    1         0.1672026654E-02      0.4673408349E-02

    ------------------------------------------------
       NWT REQUIRED            3 OUTER ITERATIONS 
       AND A TOTAL OF          5 INNER ITERATIONS.
    ------------------------------------------------

 NO OUTPUT CONTROL FOR STRESS PERIOD   27   TIME STEP   23
 
 SOLVING FOR HEAD 
                                                   Max.-Head-Change                         Max.-Flux-Residual
  Residual-Control   Outer-Iter.   Inner-Iter.     Column Row Layer    Maximum-Head-Change  Column Row Layer    Maximum-Flux-Residual          L2-NORM 
          0                 1           2             4    7     1       0.4517517891E-02       4    7    1         0.2367794572E+00      0.6394222026E+00
          0                 2           2             4    7     1      -0.4394317045E-03       4    7    1        -0.2367797289E-01      0.6418948546E-01
          0                 3           1             4    7     1       0.2992366630E-04       4    7    1         0.1657458554E-02      0.4598408438E-02

    ------------------------------------------------
       NWT REQUIRED            3 OUTER ITERATIONS 
       AND A TOTAL OF          5 INNER ITERATIONS.
    ------------------------------------------------

 NO OUTPUT CONTROL FOR STRESS PERIOD   27   TIME STEP   24
 
 SOLVING FOR HEAD 
                                                   Max.-Head-Change                         Max.-Flux-Residual
  Residual-Control   Outer-Iter.   Inner-Iter.     Column Row Layer    Maximum-Head-Change  Column Row Layer    Maximum-Flux-Residual          L2-NORM 
          0                 1           2             4    7     1       0.4478680592E-02       4    7    1         0.2347322401E+00      0.6334615337E+00
          0                 2           2             4    7     1      -0.4356538862E-03       4    7    1        -0.2347325061E-01      0.6354123299E-01
          0                 3           1             4    7     1       0.2966641121E-04       4    7    1         0.1643128002E-02      0.4531852518E-02

    ------------------------------------------------
       NWT REQUIRED            3 OUTER ITERATIONS 
       AND A TOTAL OF          5 INNER ITERATIONS.
    ------------------------------------------------

 NO OUTPUT CONTROL FOR STRESS PERIOD   27   TIME STEP   25
 
 SOLVING FOR HEAD 
                                                   Max.-Head-Change                         Max.-Flux-Residual
  Residual-Control   Outer-Iter.   Inner-Iter.     Column Row Layer    Maximum-Head-Change  Column Row Layer    Maximum-Flux-Residual          L2-NORM 
          0                 1           2             4    7     1       0.4440193563E-02       4    7    1         0.2327037782E+00      0.6278095716E+00
          0                 2           2             4    7     1      -0.4319101395E-03       4    7    1        -0.2327040386E-01      0.6293508285E-01
          0                 3           1             4    7     1       0.2941147599E-04       4    7    1         0.1628928734E-02      0.4471899338E-02

    ------------------------------------------------
       NWT REQUIRED            3 OUTER ITERATIONS 
       AND A TOTAL OF          5 INNER ITERATIONS.
    ------------------------------------------------

 NO OUTPUT CONTROL FOR STRESS PERIOD   27   TIME STEP   26
 
 SOLVING FOR HEAD 
                                                   Max.-Head-Change                         Max.-Flux-Residual
  Residual-Control   Outer-Iter.   Inner-Iter.     Column Row Layer    Maximum-Head-Change  Column Row Layer    Maximum-Flux-Residual          L2-NORM 
          0                 1           2             4    7     1       0.4402328558E-02       4    7    1         0.2307082673E+00      0.6224440037E+00
          0                 2           2             4    7     1      -0.4282268989E-03       4    7    1        -0.2307085223E-01      0.6236454565E-01
          0                 3           1             4    7     1       0.2916066126E-04       4    7    1         0.1614960112E-02      0.4418481876E-02

    ------------------------------------------------
       NWT REQUIRED            3 OUTER ITERATIONS 
       AND A TOTAL OF          5 INNER ITERATIONS.
    ------------------------------------------------

 NO OUTPUT CONTROL FOR STRESS PERIOD   27   TIME STEP   27
 
 SOLVING FOR HEAD 
                                                   Max.-Head-Change                         Max.-Flux-Residual
  Residual-Control   Outer-Iter.   Inner-Iter.     Column Row Layer    Maximum-Head-Change  Column Row Layer    Maximum-Flux-Residual          L2-NORM 
          0                 1           2             4    7     1       0.4365067464E-02       4    7    1         0.2287450076E+00      0.6173047489E+00
          0                 2           2             4    7     1      -0.4246043254E-03       4    7    1        -0.2287452573E-01      0.6182780558E-01
          0                 3           1             4    7     1       0.2891397742E-04       4    7    1         0.1601217265E-02      0.4370155203E-02

    ------------------------------------------------
       NWT REQUIRED            3 OUTER ITERATIONS 
       AND A TOTAL OF          5 INNER ITERATIONS.
    ------------------------------------------------

 NO OUTPUT CONTROL FOR STRESS PERIOD   27   TIME STEP   28
 
 SOLVING FOR HEAD 
                                                   Max.-Head-Change                         Max.-Flux-Residual
  Residual-Control   Outer-Iter.   Inner-Iter.     Column Row Layer    Maximum-Head-Change  Column Row Layer    Maximum-Flux-Residual          L2-NORM 
          0                 1           2             4    7     1       0.4328383430E-02       4    7    1         0.2268129578E+00      0.6123899830E+00
          0                 2           2             4    7     1      -0.4210340390E-03       4    7    1        -0.2268132024E-01      0.6131413702E-01
          0                 3           1             4    7     1       0.2867085432E-04       4    7    1         0.1587692859E-02      0.4325993448E-02

    ------------------------------------------------
       NWT REQUIRED            3 OUTER ITERATIONS 
       AND A TOTAL OF          5 INNER ITERATIONS.
    ------------------------------------------------

 NO OUTPUT CONTROL FOR STRESS PERIOD   27   TIME STEP   29
 
 SOLVING FOR HEAD 
                                                   Max.-Head-Change                         Max.-Flux-Residual
  Residual-Control   Outer-Iter.   Inner-Iter.     Column Row Layer    Maximum-Head-Change  Column Row Layer    Maximum-Flux-Residual          L2-NORM 
          0                 1           2             4    7     1       0.4291995190E-02       4    7    1         0.2248962413E+00      0.6084348202E+00
          0                 2           2             4    7     1      -0.4174944482E-03       4    7    1        -0.2248964807E-01      0.6100012067E-01
          0                 3           1             4    7     1       0.2842982153E-04       4    7    1         0.1574275822E-02      0.4340165051E-02

    ------------------------------------------------
       NWT REQUIRED            3 OUTER ITERATIONS 
       AND A TOTAL OF          5 INNER ITERATIONS.
    ------------------------------------------------

 NO OUTPUT CONTROL FOR STRESS PERIOD   27   TIME STEP   30



 STREAM LISTING     PERIOD     27   STEP       30

 LAYER ROW COL. STREAM  RCH.  FLOW INTO     FLOW TO   FLOW OUT OF   OVRLND.     DIRECT     STREAM       STREAM     STREAM     STREAM   STREAMBED  STREAMBED
                SEG.NO.  NO.  STRM. RCH.    AQUIFER    STRM. RCH.    RUNOFF     PRECIP       ET          HEAD       DEPTH      WIDTH   CONDCTNC.   GRADIENT

   1    1    1     1     1    3.1499E+01  2.7310E-01   3.1226E+01  0.000E+00  0.000E+00  0.000E+00  1.09431E+03  1.262E+00  1.424E+01  6.407E-02  1.421E+00
   1    2    2     1     2    3.1226E+01  4.2272E-01   3.0803E+01  0.000E+00  0.000E+00  0.000E+00  1.08932E+03  1.259E+00  1.418E+01  9.925E-02  1.420E+00
   1    3    3     1     3    3.0803E+01  3.6028E-01   3.0443E+01  0.000E+00  0.000E+00  0.000E+00  1.08367E+03  1.256E+00  1.411E+01  8.466E-02  1.419E+00
   1    3    4     1     4    3.0443E+01  3.3158E-01   3.0111E+01  0.000E+00  0.000E+00  0.000E+00  1.07866E+03  1.253E+00  1.405E+01  7.797E-02  1.418E+00
   1    4    5     2     1    2.8111E+01  3.3470E-01   2.7777E+01  0.000E+00  0.000E+00  0.000E+00  1.07322E+03  1.291E+00  1.200E+01  7.800E-02  1.430E+00
   1    5    6     2     2    2.7777E+01  2.5697E-01   2.7520E+01  0.000E+00  0.000E+00  0.000E+00  1.06779E+03  1.283E+00  1.200E+01  6.000E-02  1.428E+00
   1    6    6     2     3    2.7520E+01  2.5654E-01   2.7263E+01  0.000E+00  0.000E+00  0.000E+00  1.06307E+03  1.276E+00  1.200E+01  6.000E-02  1.425E+00
   1    7    6     2     4    2.7263E+01  2.5611E-01   2.7007E+01  0.000E+00  0.000E+00  0.000E+00  1.05834E+03  1.268E+00  1.200E+01  6.000E-02  1.423E+00
   1    8    6     2     5    2.7007E+01  2.5567E-01   2.6751E+01  0.000E+00  0.000E+00  0.000E+00  1.05362E+03  1.261E+00  1.200E+01  6.000E-02  1.420E+00
   1    3    5     3     1    2.0000E+00  2.8252E-01   1.7175E+00  0.000E+00  0.000E+00  0.000E+00  1.07555E+03  1.909E+00  9.636E+00  7.227E-02  1.955E+00
   1    3    6     3     2    1.7175E+00  2.4905E-01   1.4684E+00  0.000E+00  0.000E+00  0.000E+00  1.07264E+03  1.727E+00  8.909E+00  6.682E-02  1.864E+00
   1    3    7     3     3    1.4684E+00  1.9718E-01   1.2712E+00  0.000E+00  0.000E+00  0.000E+00  1.06987E+03  1.555E+00  8.218E+00  5.547E-02  1.777E+00
   1    4    8     3     4    1.2712E+00  2.2567E-01   1.0456E+00  0.000E+00  0.000E+00  0.000E+00  1.06682E+03  1.364E+00  7.455E+00  6.709E-02  1.682E+00
   1    5    8     3     5    1.0456E+00  1.5790E-01   8.8768E-01  0.000E+00  0.000E+00  0.000E+00  1.06362E+03  1.164E+00  6.655E+00  4.991E-02  1.582E+00
   1    6    8     3     6    8.8768E-01  5.5980E-02   8.3170E-01  0.000E+00  0.000E+00  0.000E+00  1.06158E+03  1.036E+00  6.145E+00  1.844E-02  1.518E+00
   1    5   10     4     1    1.0000E+01  9.0919E-02   9.9091E+00  0.000E+00  0.000E+00  0.000E+00  1.07836E+03  6.368E-01  1.000E+01  2.500E-02  1.212E+00
   1    5    9     4     2    9.9091E+00  1.8158E-01   9.7275E+00  0.000E+00  0.000E+00  0.000E+00  1.07154E+03  6.315E-01  1.000E+01  5.000E-02  1.211E+00
   1    6    8     4     3    9.7275E+00  1.2689E-01   9.6006E+00  0.000E+00  0.000E+00  0.000E+00  1.06381E+03  6.256E-01  1.000E+01  3.500E-02  1.209E+00
   1    6    8     5     1    1.0432E+01  2.2686E-01   1.0205E+01  0.000E+00  0.000E+00  0.000E+00  1.05868E+03  6.790E-01  1.542E+01  6.166E-02  1.226E+00
   1    7    7     5     2    1.0205E+01  2.7894E-01   9.9265E+00  0.000E+00  0.000E+00  0.000E+00  1.05417E+03  6.732E-01  1.519E+01  7.594E-02  1.224E+00
   1    8    7     5     3    9.9265E+00  1.9221E-01   9.7343E+00  0.000E+00  0.000E+00  0.000E+00  1.04992E+03  6.676E-01  1.497E+01  5.241E-02  1.223E+00
   1    8    6     5     4    9.7343E+00  1.3577E-01   9.5985E+00  0.000E+00  0.000E+00  0.000E+00  1.04691E+03  6.637E-01  1.482E+01  3.706E-02  1.221E+00
   1    9    6     6     1    3.6350E+01  2.7151E-01   3.6078E+01  0.000E+00  0.000E+00  0.000E+00  1.04425E+03  1.525E+00  1.200E+01  6.000E-02  1.508E+00
   1   10    7     6     2    3.6078E+01  2.7109E-01   3.5807E+01  0.000E+00  0.000E+00  0.000E+00  1.03970E+03  1.518E+00  1.200E+01  6.000E-02  1.506E+00
   1   11    7     6     3    3.5807E+01  2.7068E-01   3.5537E+01  0.000E+00  0.000E+00  0.000E+00  1.03515E+03  1.511E+00  1.200E+01  6.000E-02  1.504E+00
   1   12    7     6     4    3.5537E+01  2.7027E-01   3.5266E+01  0.000E+00  0.000E+00  0.000E+00  1.03060E+03  1.504E+00  1.200E+01  6.000E-02  1.501E+00
   1   13    7     6     5    3.5266E+01  7.7510E-03   3.5259E+01  0.000E+00  0.000E+00  0.000E+00  1.02741E+03  1.501E+00  1.200E+01  2.400E-02  1.077E-01
   1   14    9     7     1    1.5000E+02  1.3379E+00   1.4866E+02  0.000E+00  0.000E+00  0.000E+00  1.03987E+03  2.288E+00  5.529E+01  5.593E-01  7.974E-01
   1   13    8     7     2    1.4866E+02  1.8330E+00   1.4683E+02  0.000E+00  0.000E+00  0.000E+00  1.03478E+03  2.279E+00  5.526E+01  6.148E-01  9.938E-01
   1   13    7     7     3    1.4683E+02  1.4535E+00   1.4538E+02  0.000E+00  0.000E+00  0.000E+00  1.02969E+03  2.271E+00  5.522E+01  5.585E-01  8.676E-01
   1   13    6     8     1    1.8063E+02  9.4844E-01   1.7969E+02  0.000E+00  0.000E+00  0.000E+00  1.02489E+03  3.017E+00  4.375E+01  4.458E-01  7.091E-01
   1   13    5     8     2    1.7969E+02  1.8262E-01   1.7950E+02  0.000E+00  0.000E+00  0.000E+00  1.01864E+03  3.014E+00  4.370E+01  4.453E-01  1.367E-01
   1   13    4     8     3    1.7950E+02 -2.4461E+00   1.8195E+02  0.000E+00  0.000E+00  0.000E+00  1.01240E+03  3.021E+00  4.380E+01  4.463E+00 -1.827E-01
   1   13    3     8     4    1.8195E+02 -3.6593E+00   1.8561E+02  0.000E+00  0.000E+00  0.000E+00  1.00616E+03  3.040E+00  4.408E+01  4.492E+00 -2.716E-01
   1   13    2     8     5    1.8561E+02 -2.5298E+00   1.8814E+02  0.000E+00  0.000E+00  0.000E+00  9.99934E+02  3.059E+00  4.435E+01  4.520E+00 -1.866E-01
   1   13    1     8     6    1.8814E+02 -1.9289E+00   1.9007E+02  0.000E+00  0.000E+00  0.000E+00  9.94948E+02  3.072E+00  4.455E+01  2.724E+00 -2.360E-01
   1    8    6     9     1    0.0000E+00  0.0000E+00   0.0000E+00  0.000E+00  0.000E+00  0.000E+00  1.07875E+03  0.000E+00  4.000E+00  0.000E+00  1.000E+00
   1    8    5     9     2    0.0000E+00  0.0000E+00   0.0000E+00  0.000E+00  0.000E+00  0.000E+00  1.07825E+03  0.000E+00  4.000E+00  0.000E+00  1.000E+00





UNSATURATED ZONE PACKAGE VOLUMETRIC BUDGET FOR  TIME STEP    30 STRESS PERIOD   27
  ------------------------------------------------------------------------------



     CUMULATIVE VOLUMES      L**3       RATES FOR THIS TIME STEP      L**3/T
     ------------------                 ------------------------

           IN:                                      IN:
           ---                                      ---
        INFILTRATION =  1102552657.7600          INFILTRATION =           4.4075

          OUT:                                     OUT:
          ----                                     ----
              UZF ET =  1002544518.9799                UZF ET =           0.7250
        UZF RECHARGE =      711843.3499          UZF RECHARGE =           0.0768

            IN - OUT =    99296295.4303              IN - OUT =           3.6057

          STORAGE:                                 STORAGE:
          --------                                 --------
      STORAGE CHANGE =    99296880.2808        STORAGE CHANGE =           3.6057

 PERCENT DISCREPANCY IS DIFFERENCE BETWEEN IN-OUT MINUS CHANGE IN STORAGE
 DIVIDED BY THE AVERAGE OF IN AND OUT TIMES 100

 PERCENT DISCREPANCY =          -0.00     PERCENT DISCREPANCY =           0.00






1
  VOLUMETRIC BUDGET FOR ENTIRE MODEL AT END OF TIME STEP   30, STRESS PERIOD  27
  ------------------------------------------------------------------------------

     CUMULATIVE VOLUMES      L**3       RATES FOR THIS TIME STEP      L**3/T
     ------------------                 ------------------------

           IN:                                      IN:
           ---                                      ---
               AG WELLS  =   176029504.0000                 AG WELLS  =           0.0000
      DIVERSION SEGMENTS =   625052736.0000        DIVERSION SEGMENTS =           0.0000
           GW IRRIGATION =           0.0000             GW IRRIGATION =           0.0000
           SW IRRIGATION =           0.0000             SW IRRIGATION =           0.0000
        SYSTEM LOSSES GW =           0.0000          SYSTEM LOSSES GW =           0.0000
        SYSTEM LOSSES SW =           0.0000          SYSTEM LOSSES SW =           0.0000

                TOTAL IN =   801082240.0000                  TOTAL IN =           0.0000

          OUT:                                     OUT:
          ----                                     ----
               AG WELLS  =           0.0000                 AG WELLS  =           0.0000
      DIVERSION SEGMENTS =           0.0000        DIVERSION SEGMENTS =           0.0000
           GW IRRIGATION =   176029504.0000             GW IRRIGATION =           0.0000
           SW IRRIGATION =   625066496.0000             SW IRRIGATION =           0.0000
        SYSTEM LOSSES GW =           0.0000          SYSTEM LOSSES GW =           0.0000
        SYSTEM LOSSES SW =           0.0000          SYSTEM LOSSES SW =           0.0000

               TOTAL OUT =   801096000.0000                 TOTAL OUT =           0.0000

                IN - OUT =      -13760.0000                  IN - OUT =           0.0000

     PERCENT DISCREPANCY =          -0.00         PERCENT DISCREPANCY =           0.00



1
  VOLUMETRIC BUDGET FOR ENTIRE MODEL AT END OF TIME STEP   30, STRESS PERIOD  27
  ------------------------------------------------------------------------------

     CUMULATIVE VOLUMES      L**3       RATES FOR THIS TIME STEP      L**3/T
     ------------------                 ------------------------

           IN:                                      IN:
           ---                                      ---
             STORAGE     =   296605760.0000               STORAGE     =           1.2818
       CONSTANT HEAD     =           0.0000         CONSTANT HEAD     =           0.0000
     HEAD DEP BOUNDS     =    19566710.0000       HEAD DEP BOUNDS     =           0.2859
      STREAM LEAKAGE     =   809794560.0000        STREAM LEAKAGE     =          11.9959
        UZF RECHARGE     =      711843.5000          UZF RECHARGE     =       7.6766E-02
               GW ET     =           0.0000                 GW ET     =           0.0000
     SURFACE LEAKAGE     =           0.0000       SURFACE LEAKAGE     =           0.0000
           AG WELLS      =           0.0000             AG WELLS      =           0.0000

                TOTAL IN =  1126678912.0000                  TOTAL IN =          13.6404

          OUT:                                     OUT:
          ----                                     ----
             STORAGE     =   185036128.0000               STORAGE     =           2.7856
       CONSTANT HEAD     =           0.0000         CONSTANT HEAD     =           0.0000
     HEAD DEP BOUNDS     =    19887518.0000       HEAD DEP BOUNDS     =           0.2909
      STREAM LEAKAGE     =   743502208.0000        STREAM LEAKAGE     =          10.5641
        UZF RECHARGE     =           0.0000          UZF RECHARGE     =           0.0000
               GW ET     =     2231806.7500                 GW ET     =           0.0000
     SURFACE LEAKAGE     =           0.0000       SURFACE LEAKAGE     =           0.0000
           AG WELLS      =   176029504.0000             AG WELLS      =           0.0000

               TOTAL OUT =  1126687232.0000                 TOTAL OUT =          13.6406

                IN - OUT =       -8320.0000                  IN - OUT =      -2.3270E-04

     PERCENT DISCREPANCY =          -0.00         PERCENT DISCREPANCY =          -0.00






         TIME SUMMARY AT END OF TIME STEP   30 IN STRESS PERIOD   27
                    SECONDS     MINUTES      HOURS       DAYS        YEARS
                    -----------------------------------------------------------
   TIME STEP LENGTH  87667.      1461.1      24.352      1.0147     2.77799E-03
 STRESS PERIOD TIME 2.63000E+06  43833.      730.56      30.440     8.33397E-02
         TOTAL TIME 6.84668E+07 1.14111E+06  19019.      792.44      2.1696    
1
1
                            STRESS PERIOD NO.   28, LENGTH =   2630000.    
                            -----------------------------------------------

                              NUMBER OF TIME STEPS =    30

                               MULTIPLIER FOR DELT =     1.000

                            INITIAL TIME STEP SIZE =   87666.66    

 REUSING NON-PARAMETER GHB CELLS FROM LAST STRESS PERIOD

      2 GHB CELLS

 REUSING STREAM SEGMENT DATA FROM LAST STRESS PERIOD



            AREAL INFILTRATION RATE
 READING ON UNIT   19 WITH FORMAT: (10F4.0)            

            1           2           3           4           5           6           7           8           9          10
 ........................................................................................................................
   1   1.2000E-09   0.000       0.000       0.000       0.000       0.000       0.000       0.000       0.000       0.000    
   2   2.1000E-09  2.0000E-09  8.0000E-10  8.5000E-09   0.000       0.000       0.000       0.000       0.000       0.000    
   3   5.0000E-10  1.1000E-09  8.8000E-09  5.5000E-09   0.000       0.000       0.000       0.000       0.000       0.000    
   4   8.5000E-09  1.1000E-09  1.1000E-09  1.1000E-09  2.0000E-09   0.000       0.000       0.000       0.000       0.000    
   5   8.5000E-09  1.1000E-09  1.1000E-09  1.1000E-09  1.1000E-09   0.000       0.000       0.000       0.000       0.000    
   6   8.5000E-09  5.2000E-09  2.1000E-09  1.1000E-09  1.5000E-09   0.000       0.000       0.000       0.000       0.000    
   7   8.5000E-09  5.2000E-09  2.1000E-09  1.2000E-09  2.0000E-09   0.000       0.000       0.000       0.000       0.000    
   8   5.0000E-10  5.2000E-09  2.1000E-09  1.2000E-09  5.0000E-09   0.000       0.000       0.000       0.000       0.000    
   9   5.0000E-10  5.2000E-09  2.1000E-09  1.2000E-09  5.0000E-09   0.000       0.000       0.000       0.000       0.000    
  10   5.0000E-10  5.2000E-09  2.1000E-09  1.2000E-09  5.8000E-09   0.000       0.000       0.000       0.000       0.000    
  11   1.0000E-10  1.1000E-09  1.1000E-09  1.2000E-09  5.0000E-09   0.000       0.000       0.000       0.000       0.000    
  12   1.1000E-09  1.1000E-09  1.1000E-09  1.1000E-09  2.0000E-09   0.000       0.000       0.000       0.000       0.000    
  13   1.1000E-09  2.2000E-09  2.2000E-09  2.1000E-09  1.0000E-09   0.000       0.000       0.000       0.000       0.000    
  14   2.0000E-10  5.5000E-09  5.5000E-09  5.2000E-09  1.0000E-09   0.000       0.000       0.000       0.000       0.000    
  15    0.000      8.8000E-09  8.8000E-09   0.000       0.000       0.000       0.000       0.000       0.000       0.000    

                  ET RATE =  5.000000E-10

 USING ET EXTINCTION DEPTH FROM PREVIOUS STRESS PERIOD. CURRENT PERIOD IS:      28

 USING EXTINCTION WATER CONTENT FROM PREVIOUS STRESS PERIOD. CURRENT PERIOD IS:      28

 USING AIR ENTRY PRESSURE FROM PREVIOUS STRESS PERIOD. CURRENT PERIOD IS:      28

 USING ROOT PRESSURE HEAD FROM PREVIOUS STRESS PERIOD. CURRENT PERIOD IS:      28

 USING ROOT ACTIVITY FROM PREVIOUS STRESS PERIOD. CURRENT PERIOD IS:      28

 PROCESSING AG STRESS PERIOD DATA

 READING AG STRESS PERIOD DATA

 READING IRRIGATION SEGMENT

 READING IRRIGATION WELL

 READING SUPPLEMENTAL WELL

 END PROCESSING AG STRESS PERIOD DATA OPTIONS
 
 SOLVING FOR HEAD 
                                                   Max.-Head-Change                         Max.-Flux-Residual
  Residual-Control   Outer-Iter.   Inner-Iter.     Column Row Layer    Maximum-Head-Change  Column Row Layer    Maximum-Flux-Residual          L2-NORM 
          0                 1           2             4   13     1       0.7310842688E-02       4   13    1         0.4205823789E+00      0.9697986794E+00
          0                 2           2             4   13     1       0.9333797481E-03       4   13    1         0.5388772421E-01      0.1064979609E+00
          0                 3           1             4   13     1       0.1190997963E-03       4   13    1         0.6855142057E-02      0.1078836553E-01
          0                 4           1             4   13     1       0.1521905265E-04       4   13    1         0.8767495983E-03      0.1219456944E-02

    ------------------------------------------------
       NWT REQUIRED            4 OUTER ITERATIONS 
       AND A TOTAL OF          6 INNER ITERATIONS.
    ------------------------------------------------

 NO OUTPUT CONTROL FOR STRESS PERIOD   28   TIME STEP    1
 
 SOLVING FOR HEAD 
                                                   Max.-Head-Change                         Max.-Flux-Residual
  Residual-Control   Outer-Iter.   Inner-Iter.     Column Row Layer    Maximum-Head-Change  Column Row Layer    Maximum-Flux-Residual          L2-NORM 
          0                 1           2             4   13     1       0.1027475507E-01       4   13    1         0.5915427830E+00      0.1249512649E+01
          0                 2           2             4   13     1       0.1306899430E-02       4   13    1         0.7553616244E-01      0.1397196404E+00
          0                 3           2             4   13     1       0.1660889515E-03       4   13    1         0.9567025694E-02      0.1480333805E-01
          0                 4           1             4   13     1       0.2121394749E-04       4   13    1         0.1223270482E-02      0.1729810287E-02

    ------------------------------------------------
       NWT REQUIRED            4 OUTER ITERATIONS 
       AND A TOTAL OF          7 INNER ITERATIONS.
    ------------------------------------------------

 NO OUTPUT CONTROL FOR STRESS PERIOD   28   TIME STEP    2
 
 SOLVING FOR HEAD 
                                                   Max.-Head-Change                         Max.-Flux-Residual
  Residual-Control   Outer-Iter.   Inner-Iter.     Column Row Layer    Maximum-Head-Change  Column Row Layer    Maximum-Flux-Residual          L2-NORM 
          0                 1           2             2   13     1       0.9162178664E-02       4   13    1         0.5188683523E+00      0.1169670704E+01
          0                 2           2             4   13     1       0.1150347409E-02       4   13    1         0.6651154471E-01      0.1294734406E+00
          0                 3           2             4   13     1       0.1466222020E-03       4   13    1         0.8442370706E-02      0.1340216347E-01
          0                 4           1             4   13     1       0.1871557864E-04       4   13    1         0.1079047511E-02      0.1539256744E-02

    ------------------------------------------------
       NWT REQUIRED            4 OUTER ITERATIONS 
       AND A TOTAL OF          7 INNER ITERATIONS.
    ------------------------------------------------

 NO OUTPUT CONTROL FOR STRESS PERIOD   28   TIME STEP    3
 
 SOLVING FOR HEAD 
                                                   Max.-Head-Change                         Max.-Flux-Residual
  Residual-Control   Outer-Iter.   Inner-Iter.     Column Row Layer    Maximum-Head-Change  Column Row Layer    Maximum-Flux-Residual          L2-NORM 
          0                 1           2             2   13     1       0.8470891896E-02       2   13    1         0.4787705105E+00      0.1100678455E+01
          0                 2           2             4   13     1       0.1009208582E-02       4   13    1         0.5837310807E-01      0.1204870993E+00
          0                 3           2             4   13     1       0.1283026937E-03       4   13    1         0.7383595269E-02      0.1214350667E-01
          0                 4           1             3   13     1       0.1674643114E-04       3   13    1         0.9606858548E-03      0.1366278785E-02

    ------------------------------------------------
       NWT REQUIRED            4 OUTER ITERATIONS 
       AND A TOTAL OF          7 INNER ITERATIONS.
    ------------------------------------------------

 NO OUTPUT CONTROL FOR STRESS PERIOD   28   TIME STEP    4
 
 SOLVING FOR HEAD 
                                                   Max.-Head-Change                         Max.-Flux-Residual
  Residual-Control   Outer-Iter.   Inner-Iter.     Column Row Layer    Maximum-Head-Change  Column Row Layer    Maximum-Flux-Residual          L2-NORM 
          0                 1           2             2   13     1       0.7829360126E-02       2   13    1         0.4425425743E+00      0.1041037553E+01
          0                 2           2             4   13     1       0.8884607800E-03       4   13    1         0.5141055551E-01      0.1128610823E+00
          0                 3           2             4   13     1       0.1132872385E-03       4   13    1         0.6516445121E-02      0.1108373160E-01
          0                 4           1             3   13     1       0.1501448770E-04       3   13    1         0.8615114057E-03      0.1221452782E-02

    ------------------------------------------------
       NWT REQUIRED            4 OUTER ITERATIONS 
       AND A TOTAL OF          7 INNER ITERATIONS.
    ------------------------------------------------

 NO OUTPUT CONTROL FOR STRESS PERIOD   28   TIME STEP    5
 
 SOLVING FOR HEAD 
                                                   Max.-Head-Change                         Max.-Flux-Residual
  Residual-Control   Outer-Iter.   Inner-Iter.     Column Row Layer    Maximum-Head-Change  Column Row Layer    Maximum-Flux-Residual          L2-NORM 
          0                 1           2             2   13     1       0.7234513057E-02       2   13    1         0.4089417235E+00      0.9894237419E+00
          0                 2           2             4   13     1       0.7835216908E-03       4   13    1         0.4536106819E-01      0.1062420856E+00
          0                 3           1             3   13     1       0.1010778195E-03       3   13    1         0.5766393566E-02      0.1014613222E-01
          0                 4           1             3   13     1       0.1340859860E-04       3   13    1         0.7695104287E-03      0.1089470659E-02

    ------------------------------------------------
       NWT REQUIRED            4 OUTER ITERATIONS 
       AND A TOTAL OF          6 INNER ITERATIONS.
    ------------------------------------------------

 NO OUTPUT CONTROL FOR STRESS PERIOD   28   TIME STEP    6
 
 SOLVING FOR HEAD 
                                                   Max.-Head-Change                         Max.-Flux-Residual
  Residual-Control   Outer-Iter.   Inner-Iter.     Column Row Layer    Maximum-Head-Change  Column Row Layer    Maximum-Flux-Residual          L2-NORM 
          0                 1           2             2   13     1       0.6683293423E-02       2   13    1         0.3777972816E+00      0.9447240295E+00
          0                 2           2             4   13     1       0.6908212745E-03       4   13    1         0.4001643204E-01      0.1005126238E+00
          0                 3           1             3   13     1       0.9039800368E-04       3   13    1         0.5156697780E-02      0.9329703514E-02

    ------------------------------------------------
       NWT REQUIRED            3 OUTER ITERATIONS 
       AND A TOTAL OF          5 INNER ITERATIONS.
    ------------------------------------------------

 NO OUTPUT CONTROL FOR STRESS PERIOD   28   TIME STEP    7
 
 SOLVING FOR HEAD 
                                                   Max.-Head-Change                         Max.-Flux-Residual
  Residual-Control   Outer-Iter.   Inner-Iter.     Column Row Layer    Maximum-Head-Change  Column Row Layer    Maximum-Flux-Residual          L2-NORM 
          0                 1           2             2   13     1       0.6172519271E-02       2   13    1         0.3489305196E+00      0.9060190911E+00
          0                 2           2             3   13     1       0.6106738393E-03       4   13    1         0.3536526269E-01      0.9559985971E-01
          0                 3           1             3   13     1       0.8123323261E-04       3   13    1         0.4633561324E-02      0.8643595579E-02

    ------------------------------------------------
       NWT REQUIRED            3 OUTER ITERATIONS 
       AND A TOTAL OF          5 INNER ITERATIONS.
    ------------------------------------------------

 NO OUTPUT CONTROL FOR STRESS PERIOD   28   TIME STEP    8
 
 SOLVING FOR HEAD 
                                                   Max.-Head-Change                         Max.-Flux-Residual
  Residual-Control   Outer-Iter.   Inner-Iter.     Column Row Layer    Maximum-Head-Change  Column Row Layer    Maximum-Flux-Residual          L2-NORM 
          0                 1           2             2   13     1       0.5699749135E-02       2   13    1         0.3222060836E+00      0.8723721724E+00
          0                 2           2             3   13     1       0.5482604055E-03       3   13    1         0.3171888800E-01      0.9140392934E-01
          0                 3           1             3   13     1       0.7289520923E-04       3   13    1         0.4157435591E-02      0.8046975080E-02

    ------------------------------------------------
       NWT REQUIRED            3 OUTER ITERATIONS 
       AND A TOTAL OF          5 INNER ITERATIONS.
    ------------------------------------------------

 NO OUTPUT CONTROL FOR STRESS PERIOD   28   TIME STEP    9
 
 SOLVING FOR HEAD 
                                                   Max.-Head-Change                         Max.-Flux-Residual
  Residual-Control   Outer-Iter.   Inner-Iter.     Column Row Layer    Maximum-Head-Change  Column Row Layer    Maximum-Flux-Residual          L2-NORM 
          0                 1           2             2   13     1       0.5262485383E-02       2   13    1         0.2974841443E+00      0.8430447865E+00
          0                 2           2             3   13     1       0.4914663533E-03       2   13    1        -0.2864846757E-01      0.8772517107E-01
          0                 3           1             3   13     1       0.6531162693E-04       3   13    1         0.3724382251E-02      0.7522709578E-02

    ------------------------------------------------
       NWT REQUIRED            3 OUTER ITERATIONS 
       AND A TOTAL OF          5 INNER ITERATIONS.
    ------------------------------------------------

 NO OUTPUT CONTROL FOR STRESS PERIOD   28   TIME STEP   10
 
 SOLVING FOR HEAD 
                                                   Max.-Head-Change                         Max.-Flux-Residual
  Residual-Control   Outer-Iter.   Inner-Iter.     Column Row Layer    Maximum-Head-Change  Column Row Layer    Maximum-Flux-Residual          L2-NORM 
          0                 1           2             2   13     1       0.4858148062E-02       2   13    1         0.2746199570E+00      0.8174217266E+00
          0                 2           2             2   13     1      -0.4493027000E-03       2   13    1        -0.2646965541E-01      0.8454540751E-01
          0                 3           1             3   13     1       0.5849648041E-04       3   13    1         0.3335156947E-02      0.7070973009E-02

    ------------------------------------------------
       NWT REQUIRED            3 OUTER ITERATIONS 
       AND A TOTAL OF          5 INNER ITERATIONS.
    ------------------------------------------------

 NO OUTPUT CONTROL FOR STRESS PERIOD   28   TIME STEP   11
 
 SOLVING FOR HEAD 
                                                   Max.-Head-Change                         Max.-Flux-Residual
  Residual-Control   Outer-Iter.   Inner-Iter.     Column Row Layer    Maximum-Head-Change  Column Row Layer    Maximum-Flux-Residual          L2-NORM 
          0                 1           2             2   13     1       0.4484362357E-02       2   13    1         0.2534801029E+00      0.7949406049E+00
          0                 2           2             2   13     1      -0.4151877980E-03       2   13    1        -0.2444921695E-01      0.8177424858E-01
          0                 3           1             3   13     1       0.5244482838E-04       3   13    1         0.2989213588E-02      0.6697688062E-02

    ------------------------------------------------
       NWT REQUIRED            3 OUTER ITERATIONS 
       AND A TOTAL OF          5 INNER ITERATIONS.
    ------------------------------------------------

 NO OUTPUT CONTROL FOR STRESS PERIOD   28   TIME STEP   12
 
 SOLVING FOR HEAD 
                                                   Max.-Head-Change                         Max.-Flux-Residual
  Residual-Control   Outer-Iter.   Inner-Iter.     Column Row Layer    Maximum-Head-Change  Column Row Layer    Maximum-Flux-Residual          L2-NORM 
          0                 1           2             2   13     1       0.4139075185E-02       2   13    1         0.2339494835E+00      0.7751596610E+00
          0                 2           2             2    2     1      -0.3856421935E-03       2   13    1        -0.2258309078E-01      0.7938637975E-01
          0                 3           1             3   13     1       0.4707347050E-04       3   13    1         0.2682776064E-02      0.6354395437E-02

    ------------------------------------------------
       NWT REQUIRED            3 OUTER ITERATIONS 
       AND A TOTAL OF          5 INNER ITERATIONS.
    ------------------------------------------------

 NO OUTPUT CONTROL FOR STRESS PERIOD   28   TIME STEP   13
 
 SOLVING FOR HEAD 
                                                   Max.-Head-Change                         Max.-Flux-Residual
  Residual-Control   Outer-Iter.   Inner-Iter.     Column Row Layer    Maximum-Head-Change  Column Row Layer    Maximum-Flux-Residual          L2-NORM 
          0                 1           2             2    2     1       0.3937093250E-02       2   13    1         0.2159097468E+00      0.7576725178E+00
          0                 2           2             2    2     1      -0.3829726308E-03       2   13    1        -0.2085597395E-01      0.7729292144E-01
          0                 3           1             3   13     1       0.4225165510E-04       3   13    1         0.2407373858E-02      0.6070730386E-02

    ------------------------------------------------
       NWT REQUIRED            3 OUTER ITERATIONS 
       AND A TOTAL OF          5 INNER ITERATIONS.
    ------------------------------------------------

 NO OUTPUT CONTROL FOR STRESS PERIOD   28   TIME STEP   14
 
 SOLVING FOR HEAD 
                                                   Max.-Head-Change                         Max.-Flux-Residual
  Residual-Control   Outer-Iter.   Inner-Iter.     Column Row Layer    Maximum-Head-Change  Column Row Layer    Maximum-Flux-Residual          L2-NORM 
          0                 1           2             2    2     1       0.3910118981E-02       2    2    1         0.2042724625E+00      0.7421490126E+00
          0                 2           2             2    2     1      -0.3803487560E-03       2    2    1        -0.2042729948E-01      0.7546894328E-01
          0                 3           1             3   13     1       0.3809133464E-04       3   13    1         0.2169704814E-02      0.5835961337E-02

    ------------------------------------------------
       NWT REQUIRED            3 OUTER ITERATIONS 
       AND A TOTAL OF          5 INNER ITERATIONS.
    ------------------------------------------------

 NO OUTPUT CONTROL FOR STRESS PERIOD   28   TIME STEP   15
 
 SOLVING FOR HEAD 
                                                   Max.-Head-Change                         Max.-Flux-Residual
  Residual-Control   Outer-Iter.   Inner-Iter.     Column Row Layer    Maximum-Head-Change  Column Row Layer    Maximum-Flux-Residual          L2-NORM 
          0                 1           2             2    2     1       0.3883433180E-02       2    2    1         0.2028692946E+00      0.7282721787E+00
          0                 2           2             2    2     1      -0.3777529405E-03       2    2    1        -0.2028698174E-01      0.7390861739E-01
          0                 3           1             3   13     1       0.3432390699E-04       3   13    1         0.1954347697E-02      0.5636429371E-02

    ------------------------------------------------
       NWT REQUIRED            3 OUTER ITERATIONS 
       AND A TOTAL OF          5 INNER ITERATIONS.
    ------------------------------------------------

 NO OUTPUT CONTROL FOR STRESS PERIOD   28   TIME STEP   16
 
 SOLVING FOR HEAD 
                                                   Max.-Head-Change                         Max.-Flux-Residual
  Residual-Control   Outer-Iter.   Inner-Iter.     Column Row Layer    Maximum-Head-Change  Column Row Layer    Maximum-Flux-Residual          L2-NORM 
          0                 1           2             2    2     1       0.3857118328E-02       2    2    1         0.2014856644E+00      0.7158924036E+00
          0                 2           2             2    2     1      -0.3751932092E-03       2    2    1        -0.2014861781E-01      0.7243081285E-01
          0                 3           1             3   13     1       0.3087758178E-04       3   13    1         0.1757817942E-02      0.5446774477E-02

    ------------------------------------------------
       NWT REQUIRED            3 OUTER ITERATIONS 
       AND A TOTAL OF          5 INNER ITERATIONS.
    ------------------------------------------------

 NO OUTPUT CONTROL FOR STRESS PERIOD   28   TIME STEP   17
 
 SOLVING FOR HEAD 
                                                   Max.-Head-Change                         Max.-Flux-Residual
  Residual-Control   Outer-Iter.   Inner-Iter.     Column Row Layer    Maximum-Head-Change  Column Row Layer    Maximum-Flux-Residual          L2-NORM 
          0                 1           2             2    2     1       0.3831168605E-02       2    2    1         0.2001212676E+00      0.7047336988E+00
          0                 2           2             2    2     1      -0.3726689952E-03       2    2    1        -0.2001217723E-01      0.7116059215E-01
          0                 3           1             3   13     1       0.2783579868E-04       3   13    1         0.1584127176E-02      0.5292350431E-02

    ------------------------------------------------
       NWT REQUIRED            3 OUTER ITERATIONS 
       AND A TOTAL OF          5 INNER ITERATIONS.
    ------------------------------------------------

 NO OUTPUT CONTROL FOR STRESS PERIOD   28   TIME STEP   18
 
 SOLVING FOR HEAD 
                                                   Max.-Head-Change                         Max.-Flux-Residual
  Residual-Control   Outer-Iter.   Inner-Iter.     Column Row Layer    Maximum-Head-Change  Column Row Layer    Maximum-Flux-Residual          L2-NORM 
          0                 1           2             2    2     1       0.3805490691E-02       2    2    1         0.1987712209E+00      0.6946168849E+00
          0                 2           2             2    2     1      -0.3701712211E-03       2    2    1        -0.1987717167E-01      0.7002393280E-01
          0                 3           1             2    2     1       0.2520728063E-04       3   13    1         0.1424249785E-02      0.5157309757E-02

    ------------------------------------------------
       NWT REQUIRED            3 OUTER ITERATIONS 
       AND A TOTAL OF          5 INNER ITERATIONS.
    ------------------------------------------------

 NO OUTPUT CONTROL FOR STRESS PERIOD   28   TIME STEP   19
 
 SOLVING FOR HEAD 
                                                   Max.-Head-Change                         Max.-Flux-Residual
  Residual-Control   Outer-Iter.   Inner-Iter.     Column Row Layer    Maximum-Head-Change  Column Row Layer    Maximum-Flux-Residual          L2-NORM 
          0                 1           2             2    2     1       0.3780167697E-02       2    2    1         0.1974398485E+00      0.6854301306E+00
          0                 2           2             2    2     1      -0.3677079711E-03       2    2    1        -0.1974403357E-01      0.6900334395E-01
          0                 3           1             2    2     1       0.2503954224E-04       2    2    1         0.1382082478E-02      0.5041746855E-02

    ------------------------------------------------
       NWT REQUIRED            3 OUTER ITERATIONS 
       AND A TOTAL OF          5 INNER ITERATIONS.
    ------------------------------------------------

 NO OUTPUT CONTROL FOR STRESS PERIOD   28   TIME STEP   20
 
 SOLVING FOR HEAD 
                                                   Max.-Head-Change                         Max.-Flux-Residual
  Residual-Control   Outer-Iter.   Inner-Iter.     Column Row Layer    Maximum-Head-Change  Column Row Layer    Maximum-Flux-Residual          L2-NORM 
          0                 1           2             1    1     1       0.3764446468E-02       2    2    1         0.1961314601E+00      0.6770289864E+00
          0                 2           2             1    1     1      -0.3661784074E-03       2    2    1        -0.1961319390E-01      0.6808089936E-01
          0                 3           1             1    1     1       0.2493538777E-04       2    2    1         0.1372923705E-02      0.4939886422E-02

    ------------------------------------------------
       NWT REQUIRED            3 OUTER ITERATIONS 
       AND A TOTAL OF          5 INNER ITERATIONS.
    ------------------------------------------------

 NO OUTPUT CONTROL FOR STRESS PERIOD   28   TIME STEP   21
 
 SOLVING FOR HEAD 
                                                   Max.-Head-Change                         Max.-Flux-Residual
  Residual-Control   Outer-Iter.   Inner-Iter.     Column Row Layer    Maximum-Head-Change  Column Row Layer    Maximum-Flux-Residual          L2-NORM 
          0                 1           2             1    1     1       0.3760432919E-02       1    1    1         0.1952170948E+00      0.6693202004E+00
          0                 2           2             1    1     1      -0.3657879973E-03       1    1    1        -0.1952173696E-01      0.6724348613E-01
          0                 3           1             1    1     1       0.2490880250E-04       1    1    1         0.1366521922E-02      0.4850412666E-02

    ------------------------------------------------
       NWT REQUIRED            3 OUTER ITERATIONS 
       AND A TOTAL OF          5 INNER ITERATIONS.
    ------------------------------------------------

 NO OUTPUT CONTROL FOR STRESS PERIOD   28   TIME STEP   22
 
 SOLVING FOR HEAD 
                                                   Max.-Head-Change                         Max.-Flux-Residual
  Residual-Control   Outer-Iter.   Inner-Iter.     Column Row Layer    Maximum-Head-Change  Column Row Layer    Maximum-Flux-Residual          L2-NORM 
          0                 1           2             1    1     1       0.3756434099E-02       1    1    1         0.1950089987E+00      0.6622163858E+00
          0                 2           2             1    1     1      -0.3653990189E-03       1    1    1        -0.1950092722E-01      0.6647827669E-01
          0                 3           1             1    1     1       0.2488231450E-04       1    1    1         0.1365065235E-02      0.4772858945E-02

    ------------------------------------------------
       NWT REQUIRED            3 OUTER ITERATIONS 
       AND A TOTAL OF          5 INNER ITERATIONS.
    ------------------------------------------------

 NO OUTPUT CONTROL FOR STRESS PERIOD   28   TIME STEP   23
 
 SOLVING FOR HEAD 
                                                   Max.-Head-Change                         Max.-Flux-Residual
  Residual-Control   Outer-Iter.   Inner-Iter.     Column Row Layer    Maximum-Head-Change  Column Row Layer    Maximum-Flux-Residual          L2-NORM 
          0                 1           2             1    1     1       0.3752449896E-02       1    1    1         0.1948016663E+00      0.6556317638E+00
          0                 2           2             1    1     1      -0.3650114626E-03       1    1    1        -0.1948019386E-01      0.6577542185E-01
          0                 3           1             1    1     1       0.2485592330E-04       1    1    1         0.1363613891E-02      0.4703198745E-02

    ------------------------------------------------
       NWT REQUIRED            3 OUTER ITERATIONS 
       AND A TOTAL OF          5 INNER ITERATIONS.
    ------------------------------------------------

 NO OUTPUT CONTROL FOR STRESS PERIOD   28   TIME STEP   24
 
 SOLVING FOR HEAD 
                                                   Max.-Head-Change                         Max.-Flux-Residual
  Residual-Control   Outer-Iter.   Inner-Iter.     Column Row Layer    Maximum-Head-Change  Column Row Layer    Maximum-Flux-Residual          L2-NORM 
          0                 1           2             1    1     1       0.3748480223E-02       1    1    1         0.1945950919E+00      0.6495045819E+00
          0                 2           2             1    1     1      -0.3646253200E-03       1    1    1        -0.1945953628E-01      0.6512704645E-01
          0                 3           1             1    1     1       0.2482962866E-04       1    1    1         0.1362167876E-02      0.4641460044E-02

    ------------------------------------------------
       NWT REQUIRED            3 OUTER ITERATIONS 
       AND A TOTAL OF          5 INNER ITERATIONS.
    ------------------------------------------------

 NO OUTPUT CONTROL FOR STRESS PERIOD   28   TIME STEP   25
 
 SOLVING FOR HEAD 
                                                   Max.-Head-Change                         Max.-Flux-Residual
  Residual-Control   Outer-Iter.   Inner-Iter.     Column Row Layer    Maximum-Head-Change  Column Row Layer    Maximum-Flux-Residual          L2-NORM 
          0                 1           2             1    1     1       0.3744524998E-02       1    1    1         0.1943892708E+00      0.6437842618E+00
          0                 2           2             1    1     1      -0.3642405826E-03       1    1    1        -0.1943895407E-01      0.6452249184E-01
          0                 3           1             1    1     1       0.2480342964E-04       1    1    1         0.1360727122E-02      0.4582413161E-02

    ------------------------------------------------
       NWT REQUIRED            3 OUTER ITERATIONS 
       AND A TOTAL OF          5 INNER ITERATIONS.
    ------------------------------------------------

 NO OUTPUT CONTROL FOR STRESS PERIOD   28   TIME STEP   26
 
 SOLVING FOR HEAD 
                                                   Max.-Head-Change                         Max.-Flux-Residual
  Residual-Control   Outer-Iter.   Inner-Iter.     Column Row Layer    Maximum-Head-Change  Column Row Layer    Maximum-Flux-Residual          L2-NORM 
          0                 1           2             1    1     1       0.3740584160E-02       1    1    1         0.1941841987E+00      0.6384260033E+00
          0                 2           2             1    1     1      -0.3638572450E-03       1    1    1        -0.1941844675E-01      0.6396928317E-01
          0                 3           1             1    1     1       0.2477732576E-04       1    1    1         0.1359291618E-02      0.4534449501E-02

    ------------------------------------------------
       NWT REQUIRED            3 OUTER ITERATIONS 
       AND A TOTAL OF          5 INNER ITERATIONS.
    ------------------------------------------------

 NO OUTPUT CONTROL FOR STRESS PERIOD   28   TIME STEP   27
 
 SOLVING FOR HEAD 
                                                   Max.-Head-Change                         Max.-Flux-Residual
  Residual-Control   Outer-Iter.   Inner-Iter.     Column Row Layer    Maximum-Head-Change  Column Row Layer    Maximum-Flux-Residual          L2-NORM 
          0                 1           2             1    1     1       0.3736657583E-02       1    1    1         0.1939798727E+00      0.6333812910E+00
          0                 2           2             1    1     1      -0.3634752940E-03       1    1    1        -0.1939801402E-01      0.6344253365E-01
          0                 3           1             1    1     1       0.2475131608E-04       1    1    1         0.1357861311E-02      0.4489692674E-02

    ------------------------------------------------
       NWT REQUIRED            3 OUTER ITERATIONS 
       AND A TOTAL OF          5 INNER ITERATIONS.
    ------------------------------------------------

 NO OUTPUT CONTROL FOR STRESS PERIOD   28   TIME STEP   28
 
 SOLVING FOR HEAD 
                                                   Max.-Head-Change                         Max.-Flux-Residual
  Residual-Control   Outer-Iter.   Inner-Iter.     Column Row Layer    Maximum-Head-Change  Column Row Layer    Maximum-Flux-Residual          L2-NORM 
          0                 1           2             1    1     1       0.3732722304E-02       1    1    1         0.1937750967E+00      0.6286111635E+00
          0                 2           2             1    1     1      -0.3630924969E-03       1    1    1        -0.1937753630E-01      0.6294931852E-01
          0                 3           1             1    1     1       0.2472524936E-04       1    1    1         0.1356427875E-02      0.4447494173E-02

    ------------------------------------------------
       NWT REQUIRED            3 OUTER ITERATIONS 
       AND A TOTAL OF          5 INNER ITERATIONS.
    ------------------------------------------------

 NO OUTPUT CONTROL FOR STRESS PERIOD   28   TIME STEP   29
 
 SOLVING FOR HEAD 
                                                   Max.-Head-Change                         Max.-Flux-Residual
  Residual-Control   Outer-Iter.   Inner-Iter.     Column Row Layer    Maximum-Head-Change  Column Row Layer    Maximum-Flux-Residual          L2-NORM 
          0                 1           2             1    1     1       0.3728824103E-02       1    1    1         0.1935722482E+00      0.6241003440E+00
          0                 2           2             1    1     1      -0.3627133063E-03       1    1    1        -0.1935725133E-01      0.6248542566E-01
          0                 3           1             1    1     1       0.2469942760E-04       1    1    1         0.1355007935E-02      0.4408546138E-02

    ------------------------------------------------
       NWT REQUIRED            3 OUTER ITERATIONS 
       AND A TOTAL OF          5 INNER ITERATIONS.
    ------------------------------------------------

 NO OUTPUT CONTROL FOR STRESS PERIOD   28   TIME STEP   30



 STREAM LISTING     PERIOD     28   STEP       30

 LAYER ROW COL. STREAM  RCH.  FLOW INTO     FLOW TO   FLOW OUT OF   OVRLND.     DIRECT     STREAM       STREAM     STREAM     STREAM   STREAMBED  STREAMBED
                SEG.NO.  NO.  STRM. RCH.    AQUIFER    STRM. RCH.    RUNOFF     PRECIP       ET          HEAD       DEPTH      WIDTH   CONDCTNC.   GRADIENT

   1    1    1     1     1    5.7748E+01  3.6407E-01   5.7384E+01  0.000E+00  0.000E+00  0.000E+00  1.09455E+03  1.498E+00  1.799E+01  8.095E-02  1.499E+00
   1    2    2     1     2    5.7384E+01  5.6377E-01   5.6820E+01  0.000E+00  0.000E+00  0.000E+00  1.08955E+03  1.492E+00  1.793E+01  1.255E-01  1.497E+00
   1    3    3     1     3    5.6820E+01  4.8075E-01   5.6340E+01  0.000E+00  0.000E+00  0.000E+00  1.08390E+03  1.485E+00  1.786E+01  1.072E-01  1.495E+00
   1    3    4     1     4    5.6340E+01  4.4266E-01   5.5897E+01  0.000E+00  0.000E+00  0.000E+00  1.07889E+03  1.480E+00  1.781E+01  9.882E-02  1.493E+00
   1    4    5     2     1    5.3897E+01  3.8302E-01   5.3514E+01  0.000E+00  0.000E+00  0.000E+00  1.07384E+03  1.911E+00  1.200E+01  7.800E-02  1.637E+00
   1    5    6     2     2    5.3514E+01  2.9420E-01   5.3220E+01  0.000E+00  0.000E+00  0.000E+00  1.06841E+03  1.903E+00  1.200E+01  6.000E-02  1.634E+00
   1    6    6     2     3    5.3220E+01  2.9382E-01   5.2926E+01  0.000E+00  0.000E+00  0.000E+00  1.06369E+03  1.897E+00  1.200E+01  6.000E-02  1.632E+00
   1    7    6     2     4    5.2926E+01  2.9344E-01   5.2633E+01  0.000E+00  0.000E+00  0.000E+00  1.05897E+03  1.891E+00  1.200E+01  6.000E-02  1.630E+00
   1    8    6     2     5    5.2633E+01  2.9306E-01   5.2339E+01  0.000E+00  0.000E+00  0.000E+00  1.05424E+03  1.884E+00  1.200E+01  6.000E-02  1.628E+00
   1    3    5     3     1    2.0000E+00  2.8252E-01   1.7175E+00  0.000E+00  0.000E+00  0.000E+00  1.07555E+03  1.909E+00  9.636E+00  7.227E-02  1.955E+00
   1    3    6     3     2    1.7175E+00  2.4905E-01   1.4684E+00  0.000E+00  0.000E+00  0.000E+00  1.07264E+03  1.727E+00  8.909E+00  6.682E-02  1.864E+00
   1    3    7     3     3    1.4684E+00  1.9718E-01   1.2712E+00  0.000E+00  0.000E+00  0.000E+00  1.06987E+03  1.555E+00  8.218E+00  5.547E-02  1.777E+00
   1    4    8     3     4    1.2712E+00  2.2567E-01   1.0456E+00  0.000E+00  0.000E+00  0.000E+00  1.06682E+03  1.364E+00  7.455E+00  6.709E-02  1.682E+00
   1    5    8     3     5    1.0456E+00  1.5790E-01   8.8768E-01  0.000E+00  0.000E+00  0.000E+00  1.06362E+03  1.164E+00  6.655E+00  4.991E-02  1.582E+00
   1    6    8     3     6    8.8768E-01  5.5980E-02   8.3170E-01  0.000E+00  0.000E+00  0.000E+00  1.06158E+03  1.036E+00  6.145E+00  1.844E-02  1.518E+00
   1    5   10     4     1    1.0000E+01  9.0919E-02   9.9091E+00  0.000E+00  0.000E+00  0.000E+00  1.07836E+03  6.368E-01  1.000E+01  2.500E-02  1.212E+00
   1    5    9     4     2    9.9091E+00  1.8158E-01   9.7275E+00  0.000E+00  0.000E+00  0.000E+00  1.07154E+03  6.315E-01  1.000E+01  5.000E-02  1.211E+00
   1    6    8     4     3    9.7275E+00  1.2689E-01   9.6006E+00  0.000E+00  0.000E+00  0.000E+00  1.06381E+03  6.256E-01  1.000E+01  3.500E-02  1.209E+00
   1    6    8     5     1    1.0432E+01  2.2686E-01   1.0205E+01  0.000E+00  0.000E+00  0.000E+00  1.05868E+03  6.790E-01  1.542E+01  6.166E-02  1.226E+00
   1    7    7     5     2    1.0205E+01  2.7894E-01   9.9265E+00  0.000E+00  0.000E+00  0.000E+00  1.05417E+03  6.732E-01  1.519E+01  7.594E-02  1.224E+00
   1    8    7     5     3    9.9265E+00  1.9221E-01   9.7343E+00  0.000E+00  0.000E+00  0.000E+00  1.04992E+03  6.676E-01  1.497E+01  5.241E-02  1.223E+00
   1    8    6     5     4    9.7343E+00  1.3577E-01   9.5985E+00  0.000E+00  0.000E+00  0.000E+00  1.04691E+03  6.637E-01  1.482E+01  3.706E-02  1.221E+00
   1    9    6     6     1    6.1938E+01  3.0608E-01   6.1632E+01  0.000E+00  0.000E+00  0.000E+00  1.04483E+03  2.101E+00  1.200E+01  6.000E-02  1.700E+00
   1   10    7     6     2    6.1632E+01  3.0571E-01   6.1326E+01  0.000E+00  0.000E+00  0.000E+00  1.04028E+03  2.095E+00  1.200E+01  6.000E-02  1.698E+00
   1   11    7     6     3    6.1326E+01  3.0533E-01   6.1021E+01  0.000E+00  0.000E+00  0.000E+00  1.03573E+03  2.089E+00  1.200E+01  6.000E-02  1.696E+00
   1   12    7     6     4    6.1021E+01  3.0496E-01   6.0716E+01  0.000E+00  0.000E+00  0.000E+00  1.03117E+03  2.083E+00  1.200E+01  6.000E-02  1.694E+00
   1   13    7     6     5    6.0716E+01  2.1336E-02   6.0695E+01  0.000E+00  0.000E+00  0.000E+00  1.02799E+03  2.079E+00  1.200E+01  2.400E-02  2.963E-01
   1   14    9     7     1    1.5000E+02  1.3383E+00   1.4866E+02  0.000E+00  0.000E+00  0.000E+00  1.03987E+03  2.288E+00  5.529E+01  5.593E-01  7.976E-01
   1   13    8     7     2    1.4866E+02  1.8328E+00   1.4683E+02  0.000E+00  0.000E+00  0.000E+00  1.03478E+03  2.279E+00  5.526E+01  6.148E-01  9.937E-01
   1   13    7     7     3    1.4683E+02  1.4467E+00   1.4538E+02  0.000E+00  0.000E+00  0.000E+00  1.02969E+03  2.271E+00  5.522E+01  5.585E-01  8.635E-01
   1   13    6     8     1    2.0608E+02  1.0463E+00   2.0503E+02  0.000E+00  0.000E+00  0.000E+00  1.02505E+03  3.170E+00  4.597E+01  4.684E-01  7.446E-01
   1   13    5     8     2    2.0503E+02  2.3941E-01   2.0479E+02  0.000E+00  0.000E+00  0.000E+00  1.01879E+03  3.166E+00  4.591E+01  4.679E-01  1.706E-01
   1   13    4     8     3    2.0479E+02 -2.3620E+00   2.0715E+02  0.000E+00  0.000E+00  0.000E+00  1.01255E+03  3.173E+00  4.600E+01  4.688E+00 -1.680E-01
   1   13    3     8     4    2.0715E+02 -3.6159E+00   2.1077E+02  0.000E+00  0.000E+00  0.000E+00  1.00631E+03  3.190E+00  4.625E+01  4.713E+00 -2.557E-01
   1   13    2     8     5    2.1077E+02 -2.4852E+00   2.1325E+02  0.000E+00  0.000E+00  0.000E+00  1.00008E+03  3.207E+00  4.650E+01  4.739E+00 -1.748E-01
   1   13    1     8     6    2.1325E+02 -1.8868E+00   2.1514E+02  0.000E+00  0.000E+00  0.000E+00  9.95094E+02  3.219E+00  4.668E+01  2.854E+00 -2.204E-01
   1    8    6     9     1    0.0000E+00  0.0000E+00   0.0000E+00  0.000E+00  0.000E+00  0.000E+00  1.07875E+03  0.000E+00  4.000E+00  0.000E+00  1.000E+00
   1    8    5     9     2    0.0000E+00  0.0000E+00   0.0000E+00  0.000E+00  0.000E+00  0.000E+00  1.07825E+03  0.000E+00  4.000E+00  0.000E+00  1.000E+00





UNSATURATED ZONE PACKAGE VOLUMETRIC BUDGET FOR  TIME STEP    30 STRESS PERIOD   28
  ------------------------------------------------------------------------------



     CUMULATIVE VOLUMES      L**3       RATES FOR THIS TIME STEP      L**3/T
     ------------------                 ------------------------

           IN:                                      IN:
           ---                                      ---
        INFILTRATION =  1114144382.3181          INFILTRATION =           4.4075

          OUT:                                     OUT:
          ----                                     ----
              UZF ET =  1004451268.8499                UZF ET =           0.7250
        UZF RECHARGE =     1172986.1702          UZF RECHARGE =           0.0979

            IN - OUT =   108520127.2981              IN - OUT =           3.5846

          STORAGE:                                 STORAGE:
          --------                                 --------
      STORAGE CHANGE =   108520983.7996        STORAGE CHANGE =           3.5846

 PERCENT DISCREPANCY IS DIFFERENCE BETWEEN IN-OUT MINUS CHANGE IN STORAGE
 DIVIDED BY THE AVERAGE OF IN AND OUT TIMES 100

 PERCENT DISCREPANCY =          -0.00     PERCENT DISCREPANCY =          -0.00






1
  VOLUMETRIC BUDGET FOR ENTIRE MODEL AT END OF TIME STEP   30, STRESS PERIOD  28
  ------------------------------------------------------------------------------

     CUMULATIVE VOLUMES      L**3       RATES FOR THIS TIME STEP      L**3/T
     ------------------                 ------------------------

           IN:                                      IN:
           ---                                      ---
               AG WELLS  =   176029504.0000                 AG WELLS  =           0.0000
      DIVERSION SEGMENTS =   625052736.0000        DIVERSION SEGMENTS =           0.0000
           GW IRRIGATION =           0.0000             GW IRRIGATION =           0.0000
           SW IRRIGATION =           0.0000             SW IRRIGATION =           0.0000
        SYSTEM LOSSES GW =           0.0000          SYSTEM LOSSES GW =           0.0000
        SYSTEM LOSSES SW =           0.0000          SYSTEM LOSSES SW =           0.0000

                TOTAL IN =   801082240.0000                  TOTAL IN =           0.0000

          OUT:                                     OUT:
          ----                                     ----
               AG WELLS  =           0.0000                 AG WELLS  =           0.0000
      DIVERSION SEGMENTS =           0.0000        DIVERSION SEGMENTS =           0.0000
           GW IRRIGATION =   176029504.0000             GW IRRIGATION =           0.0000
           SW IRRIGATION =   625066496.0000             SW IRRIGATION =           0.0000
        SYSTEM LOSSES GW =           0.0000          SYSTEM LOSSES GW =           0.0000
        SYSTEM LOSSES SW =           0.0000          SYSTEM LOSSES SW =           0.0000

               TOTAL OUT =   801096000.0000                 TOTAL OUT =           0.0000

                IN - OUT =      -13760.0000                  IN - OUT =           0.0000

     PERCENT DISCREPANCY =          -0.00         PERCENT DISCREPANCY =           0.00



1
  VOLUMETRIC BUDGET FOR ENTIRE MODEL AT END OF TIME STEP   30, STRESS PERIOD  28
  ------------------------------------------------------------------------------

     CUMULATIVE VOLUMES      L**3       RATES FOR THIS TIME STEP      L**3/T
     ------------------                 ------------------------

           IN:                                      IN:
           ---                                      ---
             STORAGE     =   299205792.0000               STORAGE     =           0.8597
       CONSTANT HEAD     =           0.0000         CONSTANT HEAD     =           0.0000
     HEAD DEP BOUNDS     =    20318664.0000       HEAD DEP BOUNDS     =           0.2859
      STREAM LEAKAGE     =   843900224.0000        STREAM LEAKAGE     =          12.9571
        UZF RECHARGE     =     1172986.2500          UZF RECHARGE     =       9.7902E-02
               GW ET     =           0.0000                 GW ET     =           0.0000
     SURFACE LEAKAGE     =           0.0000       SURFACE LEAKAGE     =           0.0000
           AG WELLS      =           0.0000             AG WELLS      =           0.0000

                TOTAL IN =  1164597632.0000                  TOTAL IN =          14.2006

          OUT:                                     OUT:
          ----                                     ----
             STORAGE     =   196231504.0000               STORAGE     =           3.5566
       CONSTANT HEAD     =           0.0000         CONSTANT HEAD     =           0.0000
     HEAD DEP BOUNDS     =    20658836.0000       HEAD DEP BOUNDS     =           0.2947
      STREAM LEAKAGE     =   769454656.0000        STREAM LEAKAGE     =          10.3500
        UZF RECHARGE     =           0.0000          UZF RECHARGE     =           0.0000
               GW ET     =     2231806.7500                 GW ET     =       4.6709E-13
     SURFACE LEAKAGE     =           0.0000       SURFACE LEAKAGE     =           0.0000
           AG WELLS      =   176029504.0000             AG WELLS      =           0.0000

               TOTAL OUT =  1164606208.0000                 TOTAL OUT =          14.2012

                IN - OUT =       -8576.0000                  IN - OUT =      -6.2656E-04

     PERCENT DISCREPANCY =          -0.00         PERCENT DISCREPANCY =          -0.00






         TIME SUMMARY AT END OF TIME STEP   30 IN STRESS PERIOD   28
                    SECONDS     MINUTES      HOURS       DAYS        YEARS
                    -----------------------------------------------------------
   TIME STEP LENGTH  87667.      1461.1      24.352      1.0147     2.77799E-03
 STRESS PERIOD TIME 2.63000E+06  43833.      730.56      30.440     8.33397E-02
         TOTAL TIME 7.10967E+07 1.18494E+06  19749.      822.88      2.2529    
1
1
                            STRESS PERIOD NO.   29, LENGTH =   2630000.    
                            -----------------------------------------------

                              NUMBER OF TIME STEPS =    30

                               MULTIPLIER FOR DELT =     1.000

                            INITIAL TIME STEP SIZE =   87666.66    

 REUSING NON-PARAMETER GHB CELLS FROM LAST STRESS PERIOD

      2 GHB CELLS

 REUSING STREAM SEGMENT DATA FROM LAST STRESS PERIOD



            AREAL INFILTRATION RATE
 READING ON UNIT   19 WITH FORMAT: (10F4.0)            

            1           2           3           4           5           6           7           8           9          10
 ........................................................................................................................
   1   1.2000E-09   0.000       0.000       0.000       0.000       0.000       0.000       0.000       0.000       0.000    
   2   2.1000E-09  2.0000E-09  8.0000E-10  8.5000E-09   0.000       0.000       0.000       0.000       0.000       0.000    
   3   5.0000E-10  1.1000E-09  8.8000E-09  5.5000E-09   0.000       0.000       0.000       0.000       0.000       0.000    
   4   8.5000E-09  1.1000E-09  1.1000E-09  1.1000E-09  2.0000E-09   0.000       0.000       0.000       0.000       0.000    
   5   8.5000E-09  1.1000E-09  1.1000E-09  1.1000E-09  1.1000E-09   0.000       0.000       0.000       0.000       0.000    
   6   8.5000E-09  5.2000E-09  2.1000E-09  1.1000E-09  1.5000E-09   0.000       0.000       0.000       0.000       0.000    
   7   8.5000E-09  5.2000E-09  2.1000E-09  1.2000E-09  2.0000E-09   0.000       0.000       0.000       0.000       0.000    
   8   5.0000E-10  5.2000E-09  2.1000E-09  1.2000E-09  5.0000E-09   0.000       0.000       0.000       0.000       0.000    
   9   5.0000E-10  5.2000E-09  2.1000E-09  1.2000E-09  5.0000E-09   0.000       0.000       0.000       0.000       0.000    
  10   5.0000E-10  5.2000E-09  2.1000E-09  1.2000E-09  5.8000E-09   0.000       0.000       0.000       0.000       0.000    
  11   1.0000E-10  1.1000E-09  1.1000E-09  1.2000E-09  5.0000E-09   0.000       0.000       0.000       0.000       0.000    
  12   1.1000E-09  1.1000E-09  1.1000E-09  1.1000E-09  2.0000E-09   0.000       0.000       0.000       0.000       0.000    
  13   1.1000E-09  2.2000E-09  2.2000E-09  2.1000E-09  1.0000E-09   0.000       0.000       0.000       0.000       0.000    
  14   2.0000E-10  5.5000E-09  5.5000E-09  5.2000E-09  1.0000E-09   0.000       0.000       0.000       0.000       0.000    
  15    0.000      8.8000E-09  8.8000E-09   0.000       0.000       0.000       0.000       0.000       0.000       0.000    

                  ET RATE =  2.500000E-08

 USING ET EXTINCTION DEPTH FROM PREVIOUS STRESS PERIOD. CURRENT PERIOD IS:      29

 USING EXTINCTION WATER CONTENT FROM PREVIOUS STRESS PERIOD. CURRENT PERIOD IS:      29

 USING AIR ENTRY PRESSURE FROM PREVIOUS STRESS PERIOD. CURRENT PERIOD IS:      29

 USING ROOT PRESSURE HEAD FROM PREVIOUS STRESS PERIOD. CURRENT PERIOD IS:      29

 USING ROOT ACTIVITY FROM PREVIOUS STRESS PERIOD. CURRENT PERIOD IS:      29

 PROCESSING AG STRESS PERIOD DATA

 READING AG STRESS PERIOD DATA

 READING IRRIGATION SEGMENT

 READING IRRIGATION WELL

 READING SUPPLEMENTAL WELL

 END PROCESSING AG STRESS PERIOD DATA OPTIONS
 
 SOLVING FOR HEAD 
                                                   Max.-Head-Change                         Max.-Flux-Residual
  Residual-Control   Outer-Iter.   Inner-Iter.     Column Row Layer    Maximum-Head-Change  Column Row Layer    Maximum-Flux-Residual          L2-NORM 
          0                 1           2             1    1     1       0.3724939935E-02       1    1    1         0.1933701328E+00      0.6198069301E+00
          0                 2           2             1    1     1      -0.3623354806E-03       1    1    1        -0.1933703967E-01      0.6204546748E-01
          0                 3           1             1    1     1       0.2467369885E-04       1    1    1         0.1353593095E-02      0.4372356758E-02

    ------------------------------------------------
       NWT REQUIRED            3 OUTER ITERATIONS 
       AND A TOTAL OF          5 INNER ITERATIONS.
    ------------------------------------------------

 NO OUTPUT CONTROL FOR STRESS PERIOD   29   TIME STEP    1
 
 SOLVING FOR HEAD 
                                                   Max.-Head-Change                         Max.-Flux-Residual
  Residual-Control   Outer-Iter.   Inner-Iter.     Column Row Layer    Maximum-Head-Change  Column Row Layer    Maximum-Flux-Residual          L2-NORM 
          0                 1           2             4   13     1      -0.1108355482E-01       4   13    1        -0.6371588522E+00      0.1163755218E+01
          0                 2           2             2   13     1       0.9125585145E-03       2   13    1         0.5298685582E-01      0.9536115693E-01
          0                 3           1             2   13     1      -0.5928810869E-04       2   13    1        -0.3538895626E-02      0.6501948448E-02

    ------------------------------------------------
       NWT REQUIRED            3 OUTER ITERATIONS 
       AND A TOTAL OF          5 INNER ITERATIONS.
    ------------------------------------------------

 NO OUTPUT CONTROL FOR STRESS PERIOD   29   TIME STEP    2
 
 SOLVING FOR HEAD 
                                                   Max.-Head-Change                         Max.-Flux-Residual
  Residual-Control   Outer-Iter.   Inner-Iter.     Column Row Layer    Maximum-Head-Change  Column Row Layer    Maximum-Flux-Residual          L2-NORM 
          0                 1           2             4   13     1      -0.1268638594E-01       4   13    1        -0.7280590823E+00      0.1315933850E+01
          0                 2           2             4   13     1       0.1223306081E-02       4   13    1         0.7218208594E-01      0.1286940006E+00
          0                 3           1             4   13     1      -0.8229073827E-04       4   13    1        -0.4992310833E-02      0.8736950526E-02

    ------------------------------------------------
       NWT REQUIRED            3 OUTER ITERATIONS 
       AND A TOTAL OF          5 INNER ITERATIONS.
    ------------------------------------------------

 NO OUTPUT CONTROL FOR STRESS PERIOD   29   TIME STEP    3
 
 SOLVING FOR HEAD 
                                                   Max.-Head-Change                         Max.-Flux-Residual
  Residual-Control   Outer-Iter.   Inner-Iter.     Column Row Layer    Maximum-Head-Change  Column Row Layer    Maximum-Flux-Residual          L2-NORM 
          0                 1           2             4   13     1      -0.1149486810E-01       4   13    1        -0.6593944822E+00      0.1225344430E+01
          0                 2           2             4   13     1       0.1108235582E-02       4   13    1         0.6536388129E-01      0.1198756285E+00
          0                 3           1             4   13     1      -0.7447049518E-04       4   13    1        -0.4515871527E-02      0.8139925964E-02

    ------------------------------------------------
       NWT REQUIRED            3 OUTER ITERATIONS 
       AND A TOTAL OF          5 INNER ITERATIONS.
    ------------------------------------------------

 NO OUTPUT CONTROL FOR STRESS PERIOD   29   TIME STEP    4
 
 SOLVING FOR HEAD 
                                                   Max.-Head-Change                         Max.-Flux-Residual
  Residual-Control   Outer-Iter.   Inner-Iter.     Column Row Layer    Maximum-Head-Change  Column Row Layer    Maximum-Flux-Residual          L2-NORM 
          0                 1           2             4   13     1      -0.1041892958E-01       4   13    1        -0.5973685992E+00      0.1143530815E+01
          0                 2           2             4   13     1       0.1004493321E-02       4   13    1         0.5921477795E-01      0.1119237639E+00
          0                 3           1             4   13     1      -0.6756805908E-04       4   13    1        -0.4095236194E-02      0.7607421295E-02

    ------------------------------------------------
       NWT REQUIRED            3 OUTER ITERATIONS 
       AND A TOTAL OF          5 INNER ITERATIONS.
    ------------------------------------------------

 NO OUTPUT CONTROL FOR STRESS PERIOD   29   TIME STEP    5
 
 SOLVING FOR HEAD 
                                                   Max.-Head-Change                         Max.-Flux-Residual
  Residual-Control   Outer-Iter.   Inner-Iter.     Column Row Layer    Maximum-Head-Change  Column Row Layer    Maximum-Flux-Residual          L2-NORM 
          0                 1           2             3   13     1      -0.9637317109E-02       3   13    1        -0.5556667878E+00      0.1099844378E+01
          0                 2           2             3   13     1       0.9167984523E-03       4   13    1         0.5481488581E-01      0.1077123368E+00
          0                 3           1             4   13     1      -0.6149969072E-04       4   13    1        -0.3790488337E-02      0.7326720973E-02

    ------------------------------------------------
       NWT REQUIRED            3 OUTER ITERATIONS 
       AND A TOTAL OF          5 INNER ITERATIONS.
    ------------------------------------------------

 NO OUTPUT CONTROL FOR STRESS PERIOD   29   TIME STEP    6
 
 SOLVING FOR HEAD 
                                                   Max.-Head-Change                         Max.-Flux-Residual
  Residual-Control   Outer-Iter.   Inner-Iter.     Column Row Layer    Maximum-Head-Change  Column Row Layer    Maximum-Flux-Residual          L2-NORM 
          0                 1           2             3   13     1      -0.8696359234E-02       3   13    1        -0.5013196000E+00      0.1021264623E+01
          0                 2           2             3   13     1       0.8260905271E-03       3   13    1         0.4902945722E-01      0.9639283574E-01
          0                 3           1             3   13     1      -0.5468104867E-04       3   13    1        -0.3336454272E-02      0.6567245109E-02

    ------------------------------------------------
       NWT REQUIRED            3 OUTER ITERATIONS 
       AND A TOTAL OF          5 INNER ITERATIONS.
    ------------------------------------------------

 NO OUTPUT CONTROL FOR STRESS PERIOD   29   TIME STEP    7
 
 SOLVING FOR HEAD 
                                                   Max.-Head-Change                         Max.-Flux-Residual
  Residual-Control   Outer-Iter.   Inner-Iter.     Column Row Layer    Maximum-Head-Change  Column Row Layer    Maximum-Flux-Residual          L2-NORM 
          0                 1           2             3   13     1      -0.7852546456E-02       3   13    1        -0.4524450480E+00      0.9548042889E+00
          0                 2           2             4   13     1       0.7512397307E-03       3   13    1         0.4422947679E-01      0.9361610163E-01
          0                 3           1             4   13     1      -0.5051176901E-04       4   13    1        -0.3055444807E-02      0.6379357614E-02

    ------------------------------------------------
       NWT REQUIRED            3 OUTER ITERATIONS 
       AND A TOTAL OF          5 INNER ITERATIONS.
    ------------------------------------------------

 NO OUTPUT CONTROL FOR STRESS PERIOD   29   TIME STEP    8
 
 SOLVING FOR HEAD 
                                                   Max.-Head-Change                         Max.-Flux-Residual
  Residual-Control   Outer-Iter.   Inner-Iter.     Column Row Layer    Maximum-Head-Change  Column Row Layer    Maximum-Flux-Residual          L2-NORM 
          0                 1           2             2   13     1      -0.7220277853E-02       3   13    1        -0.4084928308E+00      0.8961763544E+00
          0                 2           2             4   13     1       0.6824651994E-03       4   13    1         0.4013792836E-01      0.8793545032E-01
          0                 3           1             4   13     1      -0.4588201818E-04       4   13    1        -0.2774347973E-02      0.5998088712E-02

    ------------------------------------------------
       NWT REQUIRED            3 OUTER ITERATIONS 
       AND A TOTAL OF          5 INNER ITERATIONS.
    ------------------------------------------------

 NO OUTPUT CONTROL FOR STRESS PERIOD   29   TIME STEP    9
 
 SOLVING FOR HEAD 
                                                   Max.-Head-Change                         Max.-Flux-Residual
  Residual-Control   Outer-Iter.   Inner-Iter.     Column Row Layer    Maximum-Head-Change  Column Row Layer    Maximum-Flux-Residual          L2-NORM 
          0                 1           2             2   13     1      -0.6691930319E-02       2   13    1        -0.3761381969E+00      0.8439090590E+00
          0                 2           2             2   13     1       0.6242016601E-03       4   13    1         0.3646443414E-01      0.8287822815E-01
          0                 3           1             4   13     1      -0.4167911647E-04       4   13    1        -0.2519174633E-02      0.5660753529E-02

    ------------------------------------------------
       NWT REQUIRED            3 OUTER ITERATIONS 
       AND A TOTAL OF          5 INNER ITERATIONS.
    ------------------------------------------------

 NO OUTPUT CONTROL FOR STRESS PERIOD   29   TIME STEP   10
 
 SOLVING FOR HEAD 
                                                   Max.-Head-Change                         Max.-Flux-Residual
  Residual-Control   Outer-Iter.   Inner-Iter.     Column Row Layer    Maximum-Head-Change  Column Row Layer    Maximum-Flux-Residual          L2-NORM 
          0                 1           2             2   13     1      -0.6201709293E-02       2   13    1        -0.3485958228E+00      0.7973416611E+00
          0                 2           2             2   13     1       0.5788031393E-03       2   13    1         0.3344179610E-01      0.7837715886E-01
          0                 3           1             4   13     1      -0.3790152858E-04       4   13    1        -0.2289883892E-02      0.5360617854E-02

    ------------------------------------------------
       NWT REQUIRED            3 OUTER ITERATIONS 
       AND A TOTAL OF          5 INNER ITERATIONS.
    ------------------------------------------------

 NO OUTPUT CONTROL FOR STRESS PERIOD   29   TIME STEP   11
 
 SOLVING FOR HEAD 
                                                   Max.-Head-Change                         Max.-Flux-Residual
  Residual-Control   Outer-Iter.   Inner-Iter.     Column Row Layer    Maximum-Head-Change  Column Row Layer    Maximum-Flux-Residual          L2-NORM 
          0                 1           2             2   13     1      -0.5747004922E-02       2   13    1        -0.3230441384E+00      0.7558923169E+00
          0                 2           2             2   13     1       0.5363309164E-03       2   13    1         0.3100766585E-01      0.7329627934E-01
          0                 3           1             2   13     1      -0.3452243293E-04       4   13    1        -0.2081706994E-02      0.5022212602E-02

    ------------------------------------------------
       NWT REQUIRED            3 OUTER ITERATIONS 
       AND A TOTAL OF          5 INNER ITERATIONS.
    ------------------------------------------------

 NO OUTPUT CONTROL FOR STRESS PERIOD   29   TIME STEP   12
 
 SOLVING FOR HEAD 
                                                   Max.-Head-Change                         Max.-Flux-Residual
  Residual-Control   Outer-Iter.   Inner-Iter.     Column Row Layer    Maximum-Head-Change  Column Row Layer    Maximum-Flux-Residual          L2-NORM 
          0                 1           2             2   13     1      -0.5326703386E-02       2   13    1        -0.2993642720E+00      0.7198387151E+00
          0                 2           2             2   13     1       0.4974621751E-03       2   13    1         0.2873757566E-01      0.7088905389E-01
          0                 3           1             2   13     1      -0.3196710368E-04       2   13    1        -0.1897811190E-02      0.4866709351E-02

    ------------------------------------------------
       NWT REQUIRED            3 OUTER ITERATIONS 
       AND A TOTAL OF          5 INNER ITERATIONS.
    ------------------------------------------------

 NO OUTPUT CONTROL FOR STRESS PERIOD   29   TIME STEP   13
 
 SOLVING FOR HEAD 
                                                   Max.-Head-Change                         Max.-Flux-Residual
  Residual-Control   Outer-Iter.   Inner-Iter.     Column Row Layer    Maximum-Head-Change  Column Row Layer    Maximum-Flux-Residual          L2-NORM 
          0                 1           2             2   13     1      -0.4937345696E-02       2   13    1        -0.2774470750E+00      0.6885939124E+00
          0                 2           2             2   13     1       0.4612030504E-03       2   13    1         0.2663950122E-01      0.6787592023E-01
          0                 3           1             2   13     1      -0.2964251325E-04       2   13    1        -0.1759698912E-02      0.4659461874E-02

    ------------------------------------------------
       NWT REQUIRED            3 OUTER ITERATIONS 
       AND A TOTAL OF          5 INNER ITERATIONS.
    ------------------------------------------------

 NO OUTPUT CONTROL FOR STRESS PERIOD   29   TIME STEP   14
 
 SOLVING FOR HEAD 
                                                   Max.-Head-Change                         Max.-Flux-Residual
  Residual-Control   Outer-Iter.   Inner-Iter.     Column Row Layer    Maximum-Head-Change  Column Row Layer    Maximum-Flux-Residual          L2-NORM 
          0                 1           2             2   13     1      -0.4576990293E-02       2   13    1        -0.2571640193E+00      0.6605842236E+00
          0                 2           2             2   13     1       0.4276410586E-03       2   13    1         0.2469764293E-01      0.6517766656E-01
          0                 3           1             2   13     1      -0.2749905052E-04       2   13    1        -0.1632220739E-02      0.4481176440E-02

    ------------------------------------------------
       NWT REQUIRED            3 OUTER ITERATIONS 
       AND A TOTAL OF          5 INNER ITERATIONS.
    ------------------------------------------------

 NO OUTPUT CONTROL FOR STRESS PERIOD   29   TIME STEP   15
 
 SOLVING FOR HEAD 
                                                   Max.-Head-Change                         Max.-Flux-Residual
  Residual-Control   Outer-Iter.   Inner-Iter.     Column Row Layer    Maximum-Head-Change  Column Row Layer    Maximum-Flux-Residual          L2-NORM 
          0                 1           2             2   13     1      -0.4243452207E-02       2   13    1        -0.2383918755E+00      0.6354652250E+00
          0                 2           2             2   13     1       0.3965718620E-03       2   13    1         0.2290014944E-01      0.6275976892E-01
          0                 3           1             2   13     1      -0.2551810447E-04       2   13    1        -0.1514431744E-02      0.4318784851E-02

    ------------------------------------------------
       NWT REQUIRED            3 OUTER ITERATIONS 
       AND A TOTAL OF          5 INNER ITERATIONS.
    ------------------------------------------------

 NO OUTPUT CONTROL FOR STRESS PERIOD   29   TIME STEP   16
 
 SOLVING FOR HEAD 
                                                   Max.-Head-Change                         Max.-Flux-Residual
  Residual-Control   Outer-Iter.   Inner-Iter.     Column Row Layer    Maximum-Head-Change  Column Row Layer    Maximum-Flux-Residual          L2-NORM 
          0                 1           2             2   13     1      -0.3934623951E-02       2   13    1        -0.2210117985E+00      0.6129245703E+00
          0                 2           2             2   13     1       0.3677701982E-03       2   13    1         0.2123397904E-01      0.6058928878E-01
          0                 3           1             2   13     1      -0.2366448769E-04       2   13    1        -0.1404217556E-02      0.4175796457E-02

    ------------------------------------------------
       NWT REQUIRED            3 OUTER ITERATIONS 
       AND A TOTAL OF          5 INNER ITERATIONS.
    ------------------------------------------------

 NO OUTPUT CONTROL FOR STRESS PERIOD   29   TIME STEP   17
 
 SOLVING FOR HEAD 
                                                   Max.-Head-Change                         Max.-Flux-Residual
  Residual-Control   Outer-Iter.   Inner-Iter.     Column Row Layer    Maximum-Head-Change  Column Row Layer    Maximum-Flux-Residual          L2-NORM 
          0                 1           2             2   13     1      -0.3648771798E-02       2   13    1        -0.2049261120E+00      0.5927083742E+00
          0                 2           2             2   13     1       0.3411009897E-03       2   13    1         0.1969129704E-01      0.5864391989E-01
          0                 3           1             2   13     1      -0.2193933787E-04       2   13    1        -0.1301637919E-02      0.4046703108E-02

    ------------------------------------------------
       NWT REQUIRED            3 OUTER ITERATIONS 
       AND A TOTAL OF          5 INNER ITERATIONS.
    ------------------------------------------------

 NO OUTPUT CONTROL FOR STRESS PERIOD   29   TIME STEP   18
 
 SOLVING FOR HEAD 
                                                   Max.-Head-Change                         Max.-Flux-Residual
  Residual-Control   Outer-Iter.   Inner-Iter.     Column Row Layer    Maximum-Head-Change  Column Row Layer    Maximum-Flux-Residual          L2-NORM 
          0                 1           2             2   13     1      -0.3384084111E-02       2   13    1        -0.1900325967E+00      0.5745499386E+00
          0                 2           2             2   13     1       0.3164221705E-03       2   13    1         0.1826387853E-01      0.5689715418E-01
          0                 3           1             2   13     1      -0.2036234315E-04       2   13    1        -0.1207889730E-02      0.3930848841E-02

    ------------------------------------------------
       NWT REQUIRED            3 OUTER ITERATIONS 
       AND A TOTAL OF          5 INNER ITERATIONS.
    ------------------------------------------------

 NO OUTPUT CONTROL FOR STRESS PERIOD   29   TIME STEP   19
 
 SOLVING FOR HEAD 
                                                   Max.-Head-Change                         Max.-Flux-Residual
  Residual-Control   Outer-Iter.   Inner-Iter.     Column Row Layer    Maximum-Head-Change  Column Row Layer    Maximum-Flux-Residual          L2-NORM 
          0                 1           2             2   13     1      -0.3139074712E-02       2   13    1        -0.1762475309E+00      0.5582232329E+00
          0                 2           2             2   13     1       0.2935575313E-03       2   13    1         0.1694150608E-01      0.5532627442E-01
          0                 3           1             4    7     1       0.1982432102E-04       2   13    1        -0.1121272500E-02      0.3827262434E-02

    ------------------------------------------------
       NWT REQUIRED            3 OUTER ITERATIONS 
       AND A TOTAL OF          5 INNER ITERATIONS.
    ------------------------------------------------

 NO OUTPUT CONTROL FOR STRESS PERIOD   29   TIME STEP   20
 
 SOLVING FOR HEAD 
                                                   Max.-Head-Change                         Max.-Flux-Residual
  Residual-Control   Outer-Iter.   Inner-Iter.     Column Row Layer    Maximum-Head-Change  Column Row Layer    Maximum-Flux-Residual          L2-NORM 
          0                 1           2             4    7     1       0.2972095090E-02       2   13    1        -0.1634846956E+00      0.5435229477E+00
          0                 2           2             4    7     1      -0.2891039526E-03       2   13    1         0.1571605942E-01      0.5391117992E-01
          0                 3           1             4    7     1       0.1968690568E-04       4    7    1         0.1088513543E-02      0.3732718078E-02

    ------------------------------------------------
       NWT REQUIRED            3 OUTER ITERATIONS 
       AND A TOTAL OF          5 INNER ITERATIONS.
    ------------------------------------------------

 NO OUTPUT CONTROL FOR STRESS PERIOD   29   TIME STEP   21
 
 SOLVING FOR HEAD 
                                                   Max.-Head-Change                         Max.-Flux-Residual
  Residual-Control   Outer-Iter.   Inner-Iter.     Column Row Layer    Maximum-Head-Change  Column Row Layer    Maximum-Flux-Residual          L2-NORM 
          0                 1           2             4    7     1       0.2951553804E-02       4    7    1         0.1544261599E+00      0.5302771994E+00
          0                 2           2             4    7     1      -0.2871058436E-03       4    7    1        -0.1544262576E-01      0.5263736790E-01
          0                 3           1             4    7     1       0.1955084245E-04       4    7    1         0.1080984190E-02      0.3648626432E-02

    ------------------------------------------------
       NWT REQUIRED            3 OUTER ITERATIONS 
       AND A TOTAL OF          5 INNER ITERATIONS.
    ------------------------------------------------

 NO OUTPUT CONTROL FOR STRESS PERIOD   29   TIME STEP   22
 
 SOLVING FOR HEAD 
                                                   Max.-Head-Change                         Max.-Flux-Residual
  Residual-Control   Outer-Iter.   Inner-Iter.     Column Row Layer    Maximum-Head-Change  Column Row Layer    Maximum-Flux-Residual          L2-NORM 
          0                 1           2             4    7     1       0.2931214055E-02       4    7    1         0.1533611139E+00      0.5183084505E+00
          0                 2           2             4    7     1      -0.2851273384E-03       4    7    1        -0.1533612102E-01      0.5148332170E-01
          0                 3           1             4    7     1       0.1941611311E-04       4    7    1         0.1073528841E-02      0.3571953828E-02

    ------------------------------------------------
       NWT REQUIRED            3 OUTER ITERATIONS 
       AND A TOTAL OF          5 INNER ITERATIONS.
    ------------------------------------------------

 NO OUTPUT CONTROL FOR STRESS PERIOD   29   TIME STEP   23
 
 SOLVING FOR HEAD 
                                                   Max.-Head-Change                         Max.-Flux-Residual
  Residual-Control   Outer-Iter.   Inner-Iter.     Column Row Layer    Maximum-Head-Change  Column Row Layer    Maximum-Flux-Residual          L2-NORM 
          0                 1           2             4    7     1       0.2911072176E-02       4    7    1         0.1523065173E+00      0.5074757531E+00
          0                 2           2             4    7     1      -0.2831680805E-03       4    7    1        -0.1523066121E-01      0.5044115329E-01
          0                 3           1             4    7     1       0.1928269495E-04       4    7    1         0.1066146649E-02      0.3503235002E-02

    ------------------------------------------------
       NWT REQUIRED            3 OUTER ITERATIONS 
       AND A TOTAL OF          5 INNER ITERATIONS.
    ------------------------------------------------

 NO OUTPUT CONTROL FOR STRESS PERIOD   29   TIME STEP   24
 
 SOLVING FOR HEAD 
                                                   Max.-Head-Change                         Max.-Flux-Residual
  Residual-Control   Outer-Iter.   Inner-Iter.     Column Row Layer    Maximum-Head-Change  Column Row Layer    Maximum-Flux-Residual          L2-NORM 
          0                 1           2             4    7     1       0.2891132746E-02       4    7    1         0.1512621801E+00      0.4976499366E+00
          0                 2           2             4    7     1      -0.2812285160E-03       4    7    1        -0.1512622736E-01      0.4949281749E-01
          0                 3           1             4    7     1       0.1915061824E-04       4    7    1         0.1058836296E-02      0.3439222323E-02

    ------------------------------------------------
       NWT REQUIRED            3 OUTER ITERATIONS 
       AND A TOTAL OF          5 INNER ITERATIONS.
    ------------------------------------------------

 NO OUTPUT CONTROL FOR STRESS PERIOD   29   TIME STEP   25
 
 SOLVING FOR HEAD 
                                                   Max.-Head-Change                         Max.-Flux-Residual
  Residual-Control   Outer-Iter.   Inner-Iter.     Column Row Layer    Maximum-Head-Change  Column Row Layer    Maximum-Flux-Residual          L2-NORM 
          0                 1           2             4    7     1       0.2871393031E-02       4    7    1         0.1502283398E+00      0.4887086907E+00
          0                 2           2             4    7     1      -0.2793083782E-03       4    7    1        -0.1502284320E-01      0.4863086029E-01
          0                 3           1             4    7     1       0.1901986407E-04       4    7    1         0.1051599396E-02      0.3382416153E-02

    ------------------------------------------------
       NWT REQUIRED            3 OUTER ITERATIONS 
       AND A TOTAL OF          5 INNER ITERATIONS.
    ------------------------------------------------

 NO OUTPUT CONTROL FOR STRESS PERIOD   29   TIME STEP   26
 
 SOLVING FOR HEAD 
                                                   Max.-Head-Change                         Max.-Flux-Residual
  Residual-Control   Outer-Iter.   Inner-Iter.     Column Row Layer    Maximum-Head-Change  Column Row Layer    Maximum-Flux-Residual          L2-NORM 
          0                 1           2             4    7     1       0.2851578992E-02       4    7    1         0.1491900574E+00      0.4805439920E+00
          0                 2           2             4    7     1      -0.2773810103E-03       4    7    1        -0.1491901483E-01      0.4784108578E-01
          0                 3           1             4    7     1       0.1888861738E-04       4    7    1         0.1044331407E-02      0.3328843903E-02

    ------------------------------------------------
       NWT REQUIRED            3 OUTER ITERATIONS 
       AND A TOTAL OF          5 INNER ITERATIONS.
    ------------------------------------------------

 NO OUTPUT CONTROL FOR STRESS PERIOD   29   TIME STEP   27
 
 SOLVING FOR HEAD 
                                                   Max.-Head-Change                         Max.-Flux-Residual
  Residual-Control   Outer-Iter.   Inner-Iter.     Column Row Layer    Maximum-Head-Change  Column Row Layer    Maximum-Flux-Residual          L2-NORM 
          0                 1           2             4    7     1       0.2831977319E-02       4    7    1         0.1481627186E+00      0.4730759257E+00
          0                 2           2             4    7     1      -0.2754742997E-03       4    7    1        -0.1481628078E-01      0.4711870285E-01
          0                 3           1             4    7     1       0.1875877724E-04       4    7    1         0.1037140022E-02      0.3280847854E-02

    ------------------------------------------------
       NWT REQUIRED            3 OUTER ITERATIONS 
       AND A TOTAL OF          5 INNER ITERATIONS.
    ------------------------------------------------

 NO OUTPUT CONTROL FOR STRESS PERIOD   29   TIME STEP   28
 
 SOLVING FOR HEAD 
                                                   Max.-Head-Change                         Max.-Flux-Residual
  Residual-Control   Outer-Iter.   Inner-Iter.     Column Row Layer    Maximum-Head-Change  Column Row Layer    Maximum-Flux-Residual          L2-NORM 
          0                 1           2             4    7     1       0.2812582789E-02       4    7    1         0.1471463908E+00      0.4662137672E+00
          0                 2           2             4    7     1      -0.2735877390E-03       4    7    1        -0.1471464788E-01      0.4645473578E-01
          0                 3           1             4    7     1       0.1863030981E-04       4    7    1         0.1030025719E-02      0.3236472272E-02

    ------------------------------------------------
       NWT REQUIRED            3 OUTER ITERATIONS 
       AND A TOTAL OF          5 INNER ITERATIONS.
    ------------------------------------------------

 NO OUTPUT CONTROL FOR STRESS PERIOD   29   TIME STEP   29
 
 SOLVING FOR HEAD 
                                                   Max.-Head-Change                         Max.-Flux-Residual
  Residual-Control   Outer-Iter.   Inner-Iter.     Column Row Layer    Maximum-Head-Change  Column Row Layer    Maximum-Flux-Residual          L2-NORM 
          0                 1           2             4   13     1       0.5000156630E-02       4   13    1         0.2883859147E+00      0.6487442896E+00
          0                 2           2             4   13     1      -0.4818949851E-03       4   13    1        -0.2857765240E-01      0.6399260216E-01
          0                 3           1             4   13     1       0.3238468563E-04       4   13    1         0.1974657122E-02      0.4397763241E-02

    ------------------------------------------------
       NWT REQUIRED            3 OUTER ITERATIONS 
       AND A TOTAL OF          5 INNER ITERATIONS.
    ------------------------------------------------

 NO OUTPUT CONTROL FOR STRESS PERIOD   29   TIME STEP   30



 STREAM LISTING     PERIOD     29   STEP       30

 LAYER ROW COL. STREAM  RCH.  FLOW INTO     FLOW TO   FLOW OUT OF   OVRLND.     DIRECT     STREAM       STREAM     STREAM     STREAM   STREAMBED  STREAMBED
                SEG.NO.  NO.  STRM. RCH.    AQUIFER    STRM. RCH.    RUNOFF     PRECIP       ET          HEAD       DEPTH      WIDTH   CONDCTNC.   GRADIENT

   1    1    1     1     1    3.7161E+01  2.9408E-01   3.6867E+01  0.000E+00  0.000E+00  0.000E+00  1.09436E+03  1.310E+00  1.516E+01  6.824E-02  1.437E+00
   1    2    2     1     2    3.6867E+01  4.5538E-01   3.6412E+01  0.000E+00  0.000E+00  0.000E+00  1.08937E+03  1.307E+00  1.511E+01  1.057E-01  1.436E+00
   1    3    3     1     3    3.6412E+01  3.8831E-01   3.6024E+01  0.000E+00  0.000E+00  0.000E+00  1.08372E+03  1.303E+00  1.504E+01  9.023E-02  1.434E+00
   1    3    4     1     4    3.6024E+01  3.5753E-01   3.5666E+01  0.000E+00  0.000E+00  0.000E+00  1.07871E+03  1.300E+00  1.498E+01  8.314E-02  1.433E+00
   1    4    5     2     1    3.3666E+01  3.4626E-01   3.3320E+01  0.000E+00  0.000E+00  0.000E+00  1.07337E+03  1.439E+00  1.200E+01  7.800E-02  1.480E+00
   1    5    6     2     2    3.3320E+01  2.6588E-01   3.3054E+01  0.000E+00  0.000E+00  0.000E+00  1.06794E+03  1.431E+00  1.200E+01  6.000E-02  1.477E+00
   1    6    6     2     3    3.3054E+01  2.6546E-01   3.2789E+01  0.000E+00  0.000E+00  0.000E+00  1.06322E+03  1.424E+00  1.200E+01  6.000E-02  1.475E+00
   1    7    6     2     4    3.2789E+01  2.6505E-01   3.2524E+01  0.000E+00  0.000E+00  0.000E+00  1.05849E+03  1.417E+00  1.200E+01  6.000E-02  1.472E+00
   1    8    6     2     5    3.2524E+01  2.6464E-01   3.2259E+01  0.000E+00  0.000E+00  0.000E+00  1.05377E+03  1.411E+00  1.200E+01  6.000E-02  1.470E+00
   1    3    5     3     1    2.0000E+00  2.8252E-01   1.7175E+00  0.000E+00  0.000E+00  0.000E+00  1.07555E+03  1.909E+00  9.636E+00  7.227E-02  1.955E+00
   1    3    6     3     2    1.7175E+00  2.4905E-01   1.4684E+00  0.000E+00  0.000E+00  0.000E+00  1.07264E+03  1.727E+00  8.909E+00  6.682E-02  1.864E+00
   1    3    7     3     3    1.4684E+00  1.9718E-01   1.2712E+00  0.000E+00  0.000E+00  0.000E+00  1.06987E+03  1.555E+00  8.218E+00  5.547E-02  1.777E+00
   1    4    8     3     4    1.2712E+00  2.2567E-01   1.0456E+00  0.000E+00  0.000E+00  0.000E+00  1.06682E+03  1.364E+00  7.455E+00  6.709E-02  1.682E+00
   1    5    8     3     5    1.0456E+00  1.5790E-01   8.8768E-01  0.000E+00  0.000E+00  0.000E+00  1.06362E+03  1.164E+00  6.655E+00  4.991E-02  1.582E+00
   1    6    8     3     6    8.8768E-01  5.5980E-02   8.3170E-01  0.000E+00  0.000E+00  0.000E+00  1.06158E+03  1.036E+00  6.145E+00  1.844E-02  1.518E+00
   1    5   10     4     1    1.0000E+01  9.0919E-02   9.9091E+00  0.000E+00  0.000E+00  0.000E+00  1.07836E+03  6.368E-01  1.000E+01  2.500E-02  1.212E+00
   1    5    9     4     2    9.9091E+00  1.8158E-01   9.7275E+00  0.000E+00  0.000E+00  0.000E+00  1.07154E+03  6.315E-01  1.000E+01  5.000E-02  1.211E+00
   1    6    8     4     3    9.7275E+00  1.2689E-01   9.6006E+00  0.000E+00  0.000E+00  0.000E+00  1.06381E+03  6.256E-01  1.000E+01  3.500E-02  1.209E+00
   1    6    8     5     1    1.0432E+01  2.2686E-01   1.0205E+01  0.000E+00  0.000E+00  0.000E+00  1.05868E+03  6.790E-01  1.542E+01  6.166E-02  1.226E+00
   1    7    7     5     2    1.0205E+01  2.7894E-01   9.9265E+00  0.000E+00  0.000E+00  0.000E+00  1.05417E+03  6.732E-01  1.519E+01  7.594E-02  1.224E+00
   1    8    7     5     3    9.9265E+00  1.9221E-01   9.7343E+00  0.000E+00  0.000E+00  0.000E+00  1.04992E+03  6.676E-01  1.497E+01  5.241E-02  1.223E+00
   1    8    6     5     4    9.7343E+00  1.3577E-01   9.5985E+00  0.000E+00  0.000E+00  0.000E+00  1.04691E+03  6.637E-01  1.482E+01  3.706E-02  1.221E+00
   1    9    6     6     1    4.1857E+01  2.7961E-01   4.1578E+01  0.000E+00  0.000E+00  0.000E+00  1.04439E+03  1.660E+00  1.200E+01  6.000E-02  1.553E+00
   1   10    7     6     2    4.1578E+01  2.7921E-01   4.1299E+01  0.000E+00  0.000E+00  0.000E+00  1.03984E+03  1.654E+00  1.200E+01  6.000E-02  1.551E+00
   1   11    7     6     3    4.1299E+01  2.7881E-01   4.1020E+01  0.000E+00  0.000E+00  0.000E+00  1.03528E+03  1.647E+00  1.200E+01  6.000E-02  1.549E+00
   1   12    7     6     4    4.1020E+01  2.7841E-01   4.0741E+01  0.000E+00  0.000E+00  0.000E+00  1.03073E+03  1.640E+00  1.200E+01  6.000E-02  1.547E+00
   1   13    7     6     5    4.0741E+01  1.0815E-02   4.0731E+01  0.000E+00  0.000E+00  0.000E+00  1.02755E+03  1.637E+00  1.200E+01  2.400E-02  1.502E-01
   1   14    9     7     1    1.5000E+02  1.3386E+00   1.4866E+02  0.000E+00  0.000E+00  0.000E+00  1.03987E+03  2.288E+00  5.529E+01  5.593E-01  7.978E-01
   1   13    8     7     2    1.4866E+02  1.8327E+00   1.4683E+02  0.000E+00  0.000E+00  0.000E+00  1.03478E+03  2.279E+00  5.526E+01  6.148E-01  9.937E-01
   1   13    7     7     3    1.4683E+02  1.4490E+00   1.4538E+02  0.000E+00  0.000E+00  0.000E+00  1.02969E+03  2.271E+00  5.522E+01  5.585E-01  8.649E-01
   1   13    6     8     1    1.8611E+02  9.6808E-01   1.8514E+02  0.000E+00  0.000E+00  0.000E+00  1.02493E+03  3.051E+00  4.424E+01  4.508E-01  7.158E-01
   1   13    5     8     2    1.8514E+02  1.9172E-01   1.8495E+02  0.000E+00  0.000E+00  0.000E+00  1.01867E+03  3.048E+00  4.419E+01  4.503E-01  1.419E-01
   1   13    4     8     3    1.8495E+02 -2.2537E+00   1.8720E+02  0.000E+00  0.000E+00  0.000E+00  1.01243E+03  3.054E+00  4.428E+01  4.513E+00 -1.665E-01
   1   13    3     8     4    1.8720E+02 -3.4621E+00   1.9067E+02  0.000E+00  0.000E+00  0.000E+00  1.00620E+03  3.071E+00  4.454E+01  4.538E+00 -2.543E-01
   1   13    2     8     5    1.9067E+02 -2.3480E+00   1.9301E+02  0.000E+00  0.000E+00  0.000E+00  9.99964E+02  3.089E+00  4.479E+01  4.564E+00 -1.715E-01
   1   13    1     8     6    1.9301E+02 -1.8910E+00   1.9491E+02  0.000E+00  0.000E+00  0.000E+00  9.94977E+02  3.102E+00  4.498E+01  2.750E+00 -2.292E-01
   1    8    6     9     1    0.0000E+00  0.0000E+00   0.0000E+00  0.000E+00  0.000E+00  0.000E+00  1.07875E+03  0.000E+00  4.000E+00  0.000E+00  1.000E+00
   1    8    5     9     2    0.0000E+00  0.0000E+00   0.0000E+00  0.000E+00  0.000E+00  0.000E+00  1.07825E+03  0.000E+00  4.000E+00  0.000E+00  1.000E+00





UNSATURATED ZONE PACKAGE VOLUMETRIC BUDGET FOR  TIME STEP    30 STRESS PERIOD   29
  ------------------------------------------------------------------------------



     CUMULATIVE VOLUMES      L**3       RATES FOR THIS TIME STEP      L**3/T
     ------------------                 ------------------------

           IN:                                      IN:
           ---                                      ---
        INFILTRATION =  1125736106.8762          INFILTRATION =           4.4075

          OUT:                                     OUT:
          ----                                     ----
              UZF ET =  1029885525.3052                UZF ET =           4.4075
        UZF RECHARGE =     1181463.6555          UZF RECHARGE =       0.0000E+00

            IN - OUT =    94669117.9155              IN - OUT =       0.0000E+00

          STORAGE:                                 STORAGE:
          --------                                 --------
      STORAGE CHANGE =    94670087.8863        STORAGE CHANGE =       9.3619E-14

 PERCENT DISCREPANCY IS DIFFERENCE BETWEEN IN-OUT MINUS CHANGE IN STORAGE
 DIVIDED BY THE AVERAGE OF IN AND OUT TIMES 100

 PERCENT DISCREPANCY =          -0.00     PERCENT DISCREPANCY =           0.00






1
  VOLUMETRIC BUDGET FOR ENTIRE MODEL AT END OF TIME STEP   30, STRESS PERIOD  29
  ------------------------------------------------------------------------------

     CUMULATIVE VOLUMES      L**3       RATES FOR THIS TIME STEP      L**3/T
     ------------------                 ------------------------

           IN:                                      IN:
           ---                                      ---
               AG WELLS  =   176029504.0000                 AG WELLS  =           0.0000
      DIVERSION SEGMENTS =   625052736.0000        DIVERSION SEGMENTS =           0.0000
           GW IRRIGATION =           0.0000             GW IRRIGATION =           0.0000
           SW IRRIGATION =           0.0000             SW IRRIGATION =           0.0000
        SYSTEM LOSSES GW =           0.0000          SYSTEM LOSSES GW =           0.0000
        SYSTEM LOSSES SW =           0.0000          SYSTEM LOSSES SW =           0.0000

                TOTAL IN =   801082240.0000                  TOTAL IN =           0.0000

          OUT:                                     OUT:
          ----                                     ----
               AG WELLS  =           0.0000                 AG WELLS  =           0.0000
      DIVERSION SEGMENTS =           0.0000        DIVERSION SEGMENTS =           0.0000
           GW IRRIGATION =   176029504.0000             GW IRRIGATION =           0.0000
           SW IRRIGATION =   625066496.0000             SW IRRIGATION =           0.0000
        SYSTEM LOSSES GW =           0.0000          SYSTEM LOSSES GW =           0.0000
        SYSTEM LOSSES SW =           0.0000          SYSTEM LOSSES SW =           0.0000

               TOTAL OUT =   801096000.0000                 TOTAL OUT =           0.0000

                IN - OUT =      -13760.0000                  IN - OUT =           0.0000

     PERCENT DISCREPANCY =          -0.00         PERCENT DISCREPANCY =           0.00



1
  VOLUMETRIC BUDGET FOR ENTIRE MODEL AT END OF TIME STEP   30, STRESS PERIOD  29
  ------------------------------------------------------------------------------

     CUMULATIVE VOLUMES      L**3       RATES FOR THIS TIME STEP      L**3/T
     ------------------                 ------------------------

           IN:                                      IN:
           ---                                      ---
             STORAGE     =   304854400.0000               STORAGE     =           0.8635
       CONSTANT HEAD     =           0.0000         CONSTANT HEAD     =           0.0000
     HEAD DEP BOUNDS     =    21070678.0000       HEAD DEP BOUNDS     =           0.2859
      STREAM LEAKAGE     =   874285504.0000        STREAM LEAKAGE     =          12.2110
        UZF RECHARGE     =     1181463.7500          UZF RECHARGE     =           0.0000
               GW ET     =           0.0000                 GW ET     =           0.0000
     SURFACE LEAKAGE     =           0.0000       SURFACE LEAKAGE     =           0.0000
           AG WELLS      =           0.0000             AG WELLS      =           0.0000

                TOTAL IN =  1201392000.0000                  TOTAL IN =          13.3604

          OUT:                                     OUT:
          ----                                     ----
             STORAGE     =   201861936.0000               STORAGE     =           3.1150
       CONSTANT HEAD     =           0.0000         CONSTANT HEAD     =           0.0000
     HEAD DEP BOUNDS     =    21428434.0000       HEAD DEP BOUNDS     =           0.2913
      STREAM LEAKAGE     =   799838144.0000        STREAM LEAKAGE     =           9.9548
        UZF RECHARGE     =           0.0000          UZF RECHARGE     =           0.0000
               GW ET     =     2242780.7500                 GW ET     =           0.0000
     SURFACE LEAKAGE     =           0.0000       SURFACE LEAKAGE     =           0.0000
           AG WELLS      =   176029504.0000             AG WELLS      =           0.0000

               TOTAL OUT =  1201400832.0000                 TOTAL OUT =          13.3610

                IN - OUT =       -8832.0000                  IN - OUT =      -6.3705E-04

     PERCENT DISCREPANCY =          -0.00         PERCENT DISCREPANCY =          -0.00






         TIME SUMMARY AT END OF TIME STEP   30 IN STRESS PERIOD   29
                    SECONDS     MINUTES      HOURS       DAYS        YEARS
                    -----------------------------------------------------------
   TIME STEP LENGTH  87667.      1461.1      24.352      1.0147     2.77799E-03
 STRESS PERIOD TIME 2.63000E+06  43833.      730.56      30.440     8.33397E-02
         TOTAL TIME 7.37266E+07 1.22878E+06  20480.      853.32      2.3363    
1
1
                            STRESS PERIOD NO.   30, LENGTH =   2630000.    
                            -----------------------------------------------

                              NUMBER OF TIME STEPS =    30

                               MULTIPLIER FOR DELT =     1.000

                            INITIAL TIME STEP SIZE =   87666.66    

 REUSING NON-PARAMETER GHB CELLS FROM LAST STRESS PERIOD

      2 GHB CELLS

 REUSING STREAM SEGMENT DATA FROM LAST STRESS PERIOD



            AREAL INFILTRATION RATE
 READING ON UNIT   19 WITH FORMAT: (10F4.0)            

            1           2           3           4           5           6           7           8           9          10
 ........................................................................................................................
   1   1.2000E-09   0.000       0.000       0.000       0.000       0.000       0.000       0.000       0.000       0.000    
   2   2.1000E-09  2.0000E-09  8.0000E-10  8.5000E-09   0.000       0.000       0.000       0.000       0.000       0.000    
   3   5.0000E-10  1.1000E-09  8.8000E-09  5.5000E-09   0.000       0.000       0.000       0.000       0.000       0.000    
   4   8.5000E-09  1.1000E-09  1.1000E-09  1.1000E-09  2.0000E-09   0.000       0.000       0.000       0.000       0.000    
   5   8.5000E-09  1.1000E-09  1.1000E-09  1.1000E-09  1.1000E-09   0.000       0.000       0.000       0.000       0.000    
   6   8.5000E-09  5.2000E-09  2.1000E-09  1.1000E-09  1.5000E-09   0.000       0.000       0.000       0.000       0.000    
   7   8.5000E-09  5.2000E-09  2.1000E-09  1.2000E-09  2.0000E-09   0.000       0.000       0.000       0.000       0.000    
   8   5.0000E-10  5.2000E-09  2.1000E-09  1.2000E-09  5.0000E-09   0.000       0.000       0.000       0.000       0.000    
   9   5.0000E-10  5.2000E-09  2.1000E-09  1.2000E-09  5.0000E-09   0.000       0.000       0.000       0.000       0.000    
  10   5.0000E-10  5.2000E-09  2.1000E-09  1.2000E-09  5.8000E-09   0.000       0.000       0.000       0.000       0.000    
  11   1.0000E-10  1.1000E-09  1.1000E-09  1.2000E-09  5.0000E-09   0.000       0.000       0.000       0.000       0.000    
  12   1.1000E-09  1.1000E-09  1.1000E-09  1.1000E-09  2.0000E-09   0.000       0.000       0.000       0.000       0.000    
  13   1.1000E-09  2.2000E-09  2.2000E-09  2.1000E-09  1.0000E-09   0.000       0.000       0.000       0.000       0.000    
  14   2.0000E-10  5.5000E-09  5.5000E-09  5.2000E-09  1.0000E-09   0.000       0.000       0.000       0.000       0.000    
  15    0.000      8.8000E-09  8.8000E-09   0.000       0.000       0.000       0.000       0.000       0.000       0.000    

                  ET RATE =  5.000000E-08

 USING ET EXTINCTION DEPTH FROM PREVIOUS STRESS PERIOD. CURRENT PERIOD IS:      30

 USING EXTINCTION WATER CONTENT FROM PREVIOUS STRESS PERIOD. CURRENT PERIOD IS:      30

 USING AIR ENTRY PRESSURE FROM PREVIOUS STRESS PERIOD. CURRENT PERIOD IS:      30

 USING ROOT PRESSURE HEAD FROM PREVIOUS STRESS PERIOD. CURRENT PERIOD IS:      30

 USING ROOT ACTIVITY FROM PREVIOUS STRESS PERIOD. CURRENT PERIOD IS:      30

 PROCESSING AG STRESS PERIOD DATA

 READING AG STRESS PERIOD DATA

 READING IRRIGATION SEGMENT

 READING IRRIGATION WELL

 READING SUPPLEMENTAL WELL

 END PROCESSING AG STRESS PERIOD DATA OPTIONS
 
 SOLVING FOR HEAD 
                                                   Max.-Head-Change                         Max.-Flux-Residual
  Residual-Control   Outer-Iter.   Inner-Iter.     Column Row Layer    Maximum-Head-Change  Column Row Layer    Maximum-Flux-Residual          L2-NORM 
          0                 1           2             4   13     1       0.1900750454E-01       4   13    1         0.1097989264E+01      0.1985108792E+01
          0                 2           2             4   13     1      -0.4670106793E-02       4   13    1        -0.2769509467E+00      0.4778149448E+00
          0                 3           2             4   13     1       0.3133317339E-03       4   13    1         0.1910474632E-01      0.3203987871E-01
          0                 4           1             4   13     1      -0.1216920299E-04       4   13    1        -0.7629299553E-03      0.1219259497E-02

    ------------------------------------------------
       NWT REQUIRED            4 OUTER ITERATIONS 
       AND A TOTAL OF          7 INNER ITERATIONS.
    ------------------------------------------------

 NO OUTPUT CONTROL FOR STRESS PERIOD   30   TIME STEP    1
 
 SOLVING FOR HEAD 
                                                   Max.-Head-Change                         Max.-Flux-Residual
  Residual-Control   Outer-Iter.   Inner-Iter.     Column Row Layer    Maximum-Head-Change  Column Row Layer    Maximum-Flux-Residual          L2-NORM 
          0                 1           2             4   13     1       0.1740155097E-01       4   13    1         0.1004765961E+01      0.1859826018E+01
          0                 2           2             4   13     1      -0.4416467794E-02       4   13    1        -0.2618671765E+00      0.4552780811E+00
          0                 3           2             4   13     1       0.2963149667E-03       4   13    1         0.1806381015E-01      0.3053495407E-01
          0                 4           1             4   13     1      -0.1149915253E-04       4   13    1        -0.7207346152E-03      0.1162605921E-02

    ------------------------------------------------
       NWT REQUIRED            4 OUTER ITERATIONS 
       AND A TOTAL OF          7 INNER ITERATIONS.
    ------------------------------------------------

 NO OUTPUT CONTROL FOR STRESS PERIOD   30   TIME STEP    2
 
 SOLVING FOR HEAD 
                                                   Max.-Head-Change                         Max.-Flux-Residual
  Residual-Control   Outer-Iter.   Inner-Iter.     Column Row Layer    Maximum-Head-Change  Column Row Layer    Maximum-Flux-Residual          L2-NORM 
          0                 1           2             4   13     1       0.1595312838E-01       4   13    1         0.9207126071E+00      0.1746205794E+01
          0                 2           2             4   13     1      -0.4270345247E-02       4   13    1        -0.2531569383E+00      0.4431678394E+00
          0                 3           2             4   13     1       0.2865284115E-03       4   13    1         0.1746464919E-01      0.2972719613E-01
          0                 4           1             4   13     1      -0.1111901616E-04       4   13    1        -0.6968687294E-03      0.1130076296E-02

    ------------------------------------------------
       NWT REQUIRED            4 OUTER ITERATIONS 
       AND A TOTAL OF          7 INNER ITERATIONS.
    ------------------------------------------------

 NO OUTPUT CONTROL FOR STRESS PERIOD   30   TIME STEP    3
 
 SOLVING FOR HEAD 
                                                   Max.-Head-Change                         Max.-Flux-Residual
  Residual-Control   Outer-Iter.   Inner-Iter.     Column Row Layer    Maximum-Head-Change  Column Row Layer    Maximum-Flux-Residual          L2-NORM 
          0                 1           2             2   13     1       0.1465801097E-01       4   13    1         0.8453812975E+00      0.1643819887E+01
          0                 2           2             4   13     1      -0.4140041069E-02       4   13    1        -0.2452774473E+00      0.4427280500E+00
          0                 3           2             4   13     1       0.2777715928E-03       4   13    1         0.1691993968E-01      0.2971602308E-01
          0                 4           1             4   13     1      -0.1077746987E-04       4   13    1        -0.6750182756E-03      0.1132005389E-02

    ------------------------------------------------
       NWT REQUIRED            4 OUTER ITERATIONS 
       AND A TOTAL OF          7 INNER ITERATIONS.
    ------------------------------------------------

 NO OUTPUT CONTROL FOR STRESS PERIOD   30   TIME STEP    4
 
 SOLVING FOR HEAD 
                                                   Max.-Head-Change                         Max.-Flux-Residual
  Residual-Control   Outer-Iter.   Inner-Iter.     Column Row Layer    Maximum-Head-Change  Column Row Layer    Maximum-Flux-Residual          L2-NORM 
          0                 1           2             2   13     1       0.1369980271E-01       4   13    1         0.7777353500E+00      0.1546616915E+01
          0                 2           2             4   13     1      -0.3766846531E-02       4   13    1        -0.2233339986E+00      0.3958533279E+00
          0                 3           2             4   13     1       0.1475845597E-03       4   13    1         0.8996021017E-02      0.1572195744E-01
          0                 4           2             4   13     1      -0.1912196349E-03       4   13    1        -0.1198065352E-01      0.2077994221E-01
          0                 5           1             4   13     1       0.2177429062E-05       4   13    1         0.1403667547E-03      0.2081866180E-03

    ------------------------------------------------
       NWT REQUIRED            5 OUTER ITERATIONS 
       AND A TOTAL OF          9 INNER ITERATIONS.
    ------------------------------------------------

 NO OUTPUT CONTROL FOR STRESS PERIOD   30   TIME STEP    5
 
 SOLVING FOR HEAD 
                                                   Max.-Head-Change                         Max.-Flux-Residual
  Residual-Control   Outer-Iter.   Inner-Iter.     Column Row Layer    Maximum-Head-Change  Column Row Layer    Maximum-Flux-Residual          L2-NORM 
          0                 1           2             2   13     1       0.1282165382E-01       2   13    1         0.7264080724E+00      0.1455956553E+01
          0                 2           2             4   13     1      -0.3538267235E-02       4   13    1        -0.2176358682E+00      0.3837161223E+00
          0                 3           1             2   13     1       0.9049252388E-04       2   13    1         0.5411599378E-02      0.9559859866E-02

    ------------------------------------------------
       NWT REQUIRED            3 OUTER ITERATIONS 
       AND A TOTAL OF          5 INNER ITERATIONS.
    ------------------------------------------------

 NO OUTPUT CONTROL FOR STRESS PERIOD   30   TIME STEP    6
 
 SOLVING FOR HEAD 
                                                   Max.-Head-Change                         Max.-Flux-Residual
  Residual-Control   Outer-Iter.   Inner-Iter.     Column Row Layer    Maximum-Head-Change  Column Row Layer    Maximum-Flux-Residual          L2-NORM 
          0                 1           2             2   13     1       0.1199567879E-01       2   13    1         0.6796740830E+00      0.1373882967E+01
          0                 2           2             4   13     1      -0.3696263690E-02       4   13    1        -0.2275398148E+00      0.3798361413E+00
          0                 3           1             4   13     1       0.9445315665E-04       4   13    1         0.5985965192E-02      0.9490082697E-02

    ------------------------------------------------
       NWT REQUIRED            3 OUTER ITERATIONS 
       AND A TOTAL OF          5 INNER ITERATIONS.
    ------------------------------------------------

 NO OUTPUT CONTROL FOR STRESS PERIOD   30   TIME STEP    7
 
 SOLVING FOR HEAD 
                                                   Max.-Head-Change                         Max.-Flux-Residual
  Residual-Control   Outer-Iter.   Inner-Iter.     Column Row Layer    Maximum-Head-Change  Column Row Layer    Maximum-Flux-Residual          L2-NORM 
          0                 1           2             2   13     1       0.1123087595E-01       2   13    1         0.6363877055E+00      0.1295188013E+01
          0                 2           2             2   13     1      -0.3280476465E-02       4   13    1        -0.1970280989E+00      0.3541700202E+00
          0                 3           1             4   13     1       0.4742097571E-04       4   13    1         0.2994677088E-02      0.6712304790E-02

    ------------------------------------------------
       NWT REQUIRED            3 OUTER ITERATIONS 
       AND A TOTAL OF          5 INNER ITERATIONS.
    ------------------------------------------------

 NO OUTPUT CONTROL FOR STRESS PERIOD   30   TIME STEP    8
 
 SOLVING FOR HEAD 
                                                   Max.-Head-Change                         Max.-Flux-Residual
  Residual-Control   Outer-Iter.   Inner-Iter.     Column Row Layer    Maximum-Head-Change  Column Row Layer    Maximum-Flux-Residual          L2-NORM 
          0                 1           2             2   13     1       0.1052360173E-01       2   13    1         0.5963425168E+00      0.1224025568E+01
          0                 2           2             2   13     1      -0.3208604138E-02       4   13    1        -0.1908258961E+00      0.3455641733E+00
          0                 3           1             4   13     1       0.4032329139E-04       4   13    1         0.2544205710E-02      0.6260971934E-02

    ------------------------------------------------
       NWT REQUIRED            3 OUTER ITERATIONS 
       AND A TOTAL OF          5 INNER ITERATIONS.
    ------------------------------------------------

 NO OUTPUT CONTROL FOR STRESS PERIOD   30   TIME STEP    9
 
 SOLVING FOR HEAD 
                                                   Max.-Head-Change                         Max.-Flux-Residual
  Residual-Control   Outer-Iter.   Inner-Iter.     Column Row Layer    Maximum-Head-Change  Column Row Layer    Maximum-Flux-Residual          L2-NORM 
          0                 1           2             2   13     1       0.9871450202E-02       2   13    1         0.5594068344E+00      0.1161886554E+01
          0                 2           2             2   13     1      -0.3142211054E-02       4   13    1        -0.1854547798E+00      0.3378910143E+00
          0                 3           1             4   13     1       0.3421887165E-04       4   13    1         0.2156912686E-02      0.5888462752E-02

    ------------------------------------------------
       NWT REQUIRED            3 OUTER ITERATIONS 
       AND A TOTAL OF          5 INNER ITERATIONS.
    ------------------------------------------------

 NO OUTPUT CONTROL FOR STRESS PERIOD   30   TIME STEP   10
 
 SOLVING FOR HEAD 
                                                   Max.-Head-Change                         Max.-Flux-Residual
  Residual-Control   Outer-Iter.   Inner-Iter.     Column Row Layer    Maximum-Head-Change  Column Row Layer    Maximum-Flux-Residual          L2-NORM 
          0                 1           2             2   13     1       0.9270570920E-02       2   13    1         0.5253654942E+00      0.1107535415E+01
          0                 2           2             2   13     1      -0.3080847707E-02       4   13    1        -0.1807897070E+00      0.3310247647E+00
          0                 3           1             2    2     1       0.3319495787E-04       2    2    1         0.1832033065E-02      0.5577667628E-02

    ------------------------------------------------
       NWT REQUIRED            3 OUTER ITERATIONS 
       AND A TOTAL OF          5 INNER ITERATIONS.
    ------------------------------------------------

 NO OUTPUT CONTROL FOR STRESS PERIOD   30   TIME STEP   11
 
 SOLVING FOR HEAD 
                                                   Max.-Head-Change                         Max.-Flux-Residual
  Residual-Control   Outer-Iter.   Inner-Iter.     Column Row Layer    Maximum-Head-Change  Column Row Layer    Maximum-Flux-Residual          L2-NORM 
          0                 1           2             2   13     1       0.8717138383E-02       2   13    1         0.4940041685E+00      0.1059879157E+01
          0                 2           2             2   13     1      -0.3024031919E-02       4   13    1        -0.1767332609E+00      0.3248611595E+00
          0                 3           1             2    2     1       0.3297922167E-04       2    2    1         0.1820041444E-02      0.5316041213E-02

    ------------------------------------------------
       NWT REQUIRED            3 OUTER ITERATIONS 
       AND A TOTAL OF          5 INNER ITERATIONS.
    ------------------------------------------------

 NO OUTPUT CONTROL FOR STRESS PERIOD   30   TIME STEP   12
 
 SOLVING FOR HEAD 
                                                   Max.-Head-Change                         Max.-Flux-Residual
  Residual-Control   Outer-Iter.   Inner-Iter.     Column Row Layer    Maximum-Head-Change  Column Row Layer    Maximum-Flux-Residual          L2-NORM 
          0                 1           2             2   13     1       0.8207588307E-02       2   13    1         0.4651229795E+00      0.1017979242E+01
          0                 2           2             2   13     1      -0.2973706986E-02       4   13    1        -0.1733406865E+00      0.3195498910E+00
          0                 3           1             2    2     1       0.3276655819E-04       2    2    1         0.1808220646E-02      0.5154180362E-02

    ------------------------------------------------
       NWT REQUIRED            3 OUTER ITERATIONS 
       AND A TOTAL OF          5 INNER ITERATIONS.
    ------------------------------------------------

 NO OUTPUT CONTROL FOR STRESS PERIOD   30   TIME STEP   13
 
 SOLVING FOR HEAD 
                                                   Max.-Head-Change                         Max.-Flux-Residual
  Residual-Control   Outer-Iter.   Inner-Iter.     Column Row Layer    Maximum-Head-Change  Column Row Layer    Maximum-Flux-Residual          L2-NORM 
          0                 1           2             2   13     1       0.7738743935E-02       2   13    1         0.4385435542E+00      0.9810562862E+00
          0                 2           2             2   13     1      -0.2923748533E-02       4   13    1        -0.1701830154E+00      0.3144129619E+00
          0                 3           1             2    2     1       0.3255691703E-04       2    2    1         0.1796568260E-02      0.4896653375E-02

    ------------------------------------------------
       NWT REQUIRED            3 OUTER ITERATIONS 
       AND A TOTAL OF          5 INNER ITERATIONS.
    ------------------------------------------------

 NO OUTPUT CONTROL FOR STRESS PERIOD   30   TIME STEP   14
 
 SOLVING FOR HEAD 
                                                   Max.-Head-Change                         Max.-Flux-Residual
  Residual-Control   Outer-Iter.   Inner-Iter.     Column Row Layer    Maximum-Head-Change  Column Row Layer    Maximum-Flux-Residual          L2-NORM 
          0                 1           2             2   13     1       0.7307424919E-02       2   13    1         0.4140869939E+00      0.9484159873E+00
          0                 2           2             2   13     1      -0.2879731908E-02       2   13    1        -0.1675883520E+00      0.3100006847E+00
          0                 3           1             2    2     1       0.3234967266E-04       2    2    1         0.1785049299E-02      0.4698704037E-02

    ------------------------------------------------
       NWT REQUIRED            3 OUTER ITERATIONS 
       AND A TOTAL OF          5 INNER ITERATIONS.
    ------------------------------------------------

 NO OUTPUT CONTROL FOR STRESS PERIOD   30   TIME STEP   15
 
 SOLVING FOR HEAD 
                                                   Max.-Head-Change                         Max.-Flux-Residual
  Residual-Control   Outer-Iter.   Inner-Iter.     Column Row Layer    Maximum-Head-Change  Column Row Layer    Maximum-Flux-Residual          L2-NORM 
          0                 1           2             2   13     1       0.6910992778E-02       2   13    1         0.3916049930E+00      0.9195014546E+00
          0                 2           2             2   13     1      -0.2836253645E-02       4   13    1        -0.1650944308E+00      0.3057198870E+00
          0                 3           1             2    2     1       0.3214594525E-04       2    2    1         0.1773725905E-02      0.4504039774E-02

    ------------------------------------------------
       NWT REQUIRED            3 OUTER ITERATIONS 
       AND A TOTAL OF          5 INNER ITERATIONS.
    ------------------------------------------------

 NO OUTPUT CONTROL FOR STRESS PERIOD   30   TIME STEP   16
 
 SOLVING FOR HEAD 
                                                   Max.-Head-Change                         Max.-Flux-Residual
  Residual-Control   Outer-Iter.   Inner-Iter.     Column Row Layer    Maximum-Head-Change  Column Row Layer    Maximum-Flux-Residual          L2-NORM 
          0                 1           2             2   13     1       0.6546792241E-02       2   13    1         0.3709479140E+00      0.8938013025E+00
          0                 2           2             2   13     1      -0.2799743683E-02       2   13    1        -0.1629298617E+00      0.2962577206E+00
          0                 3           1             4   13     1      -0.2025230821E-03       4   13    1        -0.1259157296E-01      0.1336267039E-01
          0                 4           2             2   13     1      -0.2450813726E-03       4   13    1        -0.1429036730E-01      0.2585921436E-01
          0                 5           1             4   13     1      -0.3408809016E-04       4   13    1        -0.2095375537E-02      0.3828808365E-02

    ------------------------------------------------
       NWT REQUIRED            5 OUTER ITERATIONS 
       AND A TOTAL OF          8 INNER ITERATIONS.
    ------------------------------------------------

 NO OUTPUT CONTROL FOR STRESS PERIOD   30   TIME STEP   17
 
 SOLVING FOR HEAD 
                                                   Max.-Head-Change                         Max.-Flux-Residual
  Residual-Control   Outer-Iter.   Inner-Iter.     Column Row Layer    Maximum-Head-Change  Column Row Layer    Maximum-Flux-Residual          L2-NORM 
          0                 1           2             2   13     1       0.6237093023E-02       2   13    1         0.3533754229E+00      0.8729018975E+00
          0                 2           2             2   13     1      -0.2766986849E-02       2   13    1        -0.1610217554E+00      0.2877041741E+00
          0                 3           1             4   13     1      -0.2887612751E-03       4   13    1        -0.1794866721E-01      0.1850114794E-01
          0                 4           2             4   13     1      -0.2547564334E-03       4   13    1        -0.1567751212E-01      0.2636379341E-01
          0                 5           1             4   13     1      -0.6414176576E-04       4   13    1        -0.3960637760E-02      0.5287606802E-02

    ------------------------------------------------
       NWT REQUIRED            5 OUTER ITERATIONS 
       AND A TOTAL OF          8 INNER ITERATIONS.
    ------------------------------------------------

 NO OUTPUT CONTROL FOR STRESS PERIOD   30   TIME STEP   18
 
 SOLVING FOR HEAD 
                                                   Max.-Head-Change                         Max.-Flux-Residual
  Residual-Control   Outer-Iter.   Inner-Iter.     Column Row Layer    Maximum-Head-Change  Column Row Layer    Maximum-Flux-Residual          L2-NORM 
          0                 1           2             2   13     1       0.5952764786E-02       2   13    1         0.3372410785E+00      0.8540971497E+00
          0                 2           2             2   13     1      -0.2736725666E-02       2   13    1        -0.1592586771E+00      0.2815099573E+00
          0                 3           1             4   13     1      -0.2847816749E-03       4   13    1        -0.1769921974E-01      0.1826773228E-01
          0                 4           2             4   13     1      -0.2508532355E-03       4   13    1        -0.1543749590E-01      0.2593708412E-01
          0                 5           1             4   13     1      -0.6702844329E-04       4   13    1        -0.4137944459E-02      0.5607998097E-02

    ------------------------------------------------
       NWT REQUIRED            5 OUTER ITERATIONS 
       AND A TOTAL OF          8 INNER ITERATIONS.
    ------------------------------------------------

 NO OUTPUT CONTROL FOR STRESS PERIOD   30   TIME STEP   19
 
 SOLVING FOR HEAD 
                                                   Max.-Head-Change                         Max.-Flux-Residual
  Residual-Control   Outer-Iter.   Inner-Iter.     Column Row Layer    Maximum-Head-Change  Column Row Layer    Maximum-Flux-Residual          L2-NORM 
          0                 1           2             2   13     1       0.5691914651E-02       2   13    1         0.3224377639E+00      0.8367450163E+00
          0                 2           2             2   13     1      -0.2449012340E-02       2   13    1        -0.1425258188E+00      0.2526385127E+00
          0                 3           2             4   13     1      -0.5007888841E-03       4   13    1        -0.3096843411E-01      0.3848107317E-01
          0                 4           2             4   13     1      -0.2188705146E-03       4   13    1        -0.1348668075E-01      0.2079062707E-01
          0                 5           2             4   13     1      -0.1426634925E-03       4   13    1        -0.8788613643E-02      0.1377528211E-01
          0                 6           1             2   13     1       0.7667263324E-05       2   13    1         0.4585776833E-03      0.7965709912E-03

    ------------------------------------------------
       NWT REQUIRED            6 OUTER ITERATIONS 
       AND A TOTAL OF         11 INNER ITERATIONS.
    ------------------------------------------------

 NO OUTPUT CONTROL FOR STRESS PERIOD   30   TIME STEP   20
 
 SOLVING FOR HEAD 
                                                   Max.-Head-Change                         Max.-Flux-Residual
  Residual-Control   Outer-Iter.   Inner-Iter.     Column Row Layer    Maximum-Head-Change  Column Row Layer    Maximum-Flux-Residual          L2-NORM 
          0                 1           2             2   13     1       0.5452122475E-02       2   13    1         0.3088292164E+00      0.8211237858E+00
          0                 2           2             2   13     1      -0.2413599870E-02       2   13    1        -0.1404628998E+00      0.2498424342E+00
          0                 3           2             4   13     1      -0.5103703719E-03       4   13    1        -0.3155630588E-01      0.3957159543E-01
          0                 4           2             4   13     1      -0.2196981077E-03       4   13    1        -0.1353838478E-01      0.2079397739E-01
          0                 5           2             4   13     1      -0.1434123524E-03       4   13    1        -0.8834677454E-02      0.1385354963E-01
          0                 6           1             2   13     1       0.7709818250E-05       2   13    1         0.4611199520E-03      0.8010818163E-03

    ------------------------------------------------
       NWT REQUIRED            6 OUTER ITERATIONS 
       AND A TOTAL OF         11 INNER ITERATIONS.
    ------------------------------------------------

 NO OUTPUT CONTROL FOR STRESS PERIOD   30   TIME STEP   21
 
 SOLVING FOR HEAD 
                                                   Max.-Head-Change                         Max.-Flux-Residual
  Residual-Control   Outer-Iter.   Inner-Iter.     Column Row Layer    Maximum-Head-Change  Column Row Layer    Maximum-Flux-Residual          L2-NORM 
          0                 1           2             2   13     1       0.5231818043E-02       2   13    1         0.2963264201E+00      0.8070138449E+00
          0                 2           2             2   13     1      -0.2380099771E-02       2   13    1        -0.1385114377E+00      0.2471714259E+00
          0                 3           2             4   13     1      -0.5200884262E-03       4   13    1        -0.3215263683E-01      0.4067759317E-01
          0                 4           2             4   13     1      -0.2204973204E-03       4   13    1        -0.1358834961E-01      0.2079487438E-01
          0                 5           2             4   13     1      -0.1440813473E-03       4   13    1        -0.8875828820E-02      0.1392239507E-01
          0                 6           1             2   13     1       0.7766215399E-05       2   13    1         0.4645011049E-03      0.8058406811E-03

    ------------------------------------------------
       NWT REQUIRED            6 OUTER ITERATIONS 
       AND A TOTAL OF         11 INNER ITERATIONS.
    ------------------------------------------------

 NO OUTPUT CONTROL FOR STRESS PERIOD   30   TIME STEP   22
 
 SOLVING FOR HEAD 
                                                   Max.-Head-Change                         Max.-Flux-Residual
  Residual-Control   Outer-Iter.   Inner-Iter.     Column Row Layer    Maximum-Head-Change  Column Row Layer    Maximum-Flux-Residual          L2-NORM 
          0                 1           2             2   13     1       0.5029543252E-02       2   13    1         0.2848468283E+00      0.7942352331E+00
          0                 2           2             2   13     1      -0.2348396204E-02       2   13    1        -0.1366647135E+00      0.2446157972E+00
          0                 3           2             4   13     1      -0.5299910099E-03       4   13    1        -0.3276034186E-01      0.4180364987E-01
          0                 4           2             4   13     1      -0.2212220590E-03       4   13    1        -0.1363373175E-01      0.2078770606E-01
          0                 5           2             4   13     1      -0.1446634402E-03       4   13    1        -0.8911642140E-02      0.1398178921E-01
          0                 6           1             2   13     1       0.7767507671E-05       2   13    1         0.4645614490E-03      0.8082478301E-03

    ------------------------------------------------
       NWT REQUIRED            6 OUTER ITERATIONS 
       AND A TOTAL OF         11 INNER ITERATIONS.
    ------------------------------------------------

 NO OUTPUT CONTROL FOR STRESS PERIOD   30   TIME STEP   23
 
 SOLVING FOR HEAD 
                                                   Max.-Head-Change                         Max.-Flux-Residual
  Residual-Control   Outer-Iter.   Inner-Iter.     Column Row Layer    Maximum-Head-Change  Column Row Layer    Maximum-Flux-Residual          L2-NORM 
          0                 1           2             2   13     1       0.4843892844E-02       2   13    1         0.2743108953E+00      0.7826159726E+00
          0                 2           2             2   13     1      -0.2318347846E-02       2   13    1        -0.1349145428E+00      0.2421631101E+00
          0                 3           2             4   13     1      -0.5401214939E-03       4   13    1        -0.3338214277E-01      0.4295185797E-01
          0                 4           2             4   13     1      -0.2218839830E-03       4   13    1        -0.1367525930E-01      0.2077281906E-01
          0                 5           2             4   13     1      -0.1451419065E-03       4   13    1        -0.8941061860E-02      0.1403194488E-01
          0                 6           1             2   13     1       0.7789261629E-05       2   13    1         0.4658514072E-03      0.8114088821E-03

    ------------------------------------------------
       NWT REQUIRED            6 OUTER ITERATIONS 
       AND A TOTAL OF         11 INNER ITERATIONS.
    ------------------------------------------------

 NO OUTPUT CONTROL FOR STRESS PERIOD   30   TIME STEP   24
 
 SOLVING FOR HEAD 
                                                   Max.-Head-Change                         Max.-Flux-Residual
  Residual-Control   Outer-Iter.   Inner-Iter.     Column Row Layer    Maximum-Head-Change  Column Row Layer    Maximum-Flux-Residual          L2-NORM 
          0                 1           2             1    1     1       0.4674165469E-02       2   13    1         0.2646338170E+00      0.7720203391E+00
          0                 2           2             2   13     1      -0.2289661067E-02       2   13    1        -0.1332436773E+00      0.2398030397E+00
          0                 3           2             4   13     1      -0.5504105980E-03       4   13    1        -0.3401372277E-01      0.4412182728E-01
          0                 4           2             4   13     1      -0.2224774989E-03       4   13    1        -0.1371258843E-01      0.2075069526E-01
          0                 5           2             4   13     1      -0.1455270451E-03       4   13    1        -0.8964746414E-02      0.1407244479E-01
          0                 6           1             2   13     1       0.7839276705E-05       2   13    1         0.4688667277E-03      0.8146525429E-03

    ------------------------------------------------
       NWT REQUIRED            6 OUTER ITERATIONS 
       AND A TOTAL OF         11 INNER ITERATIONS.
    ------------------------------------------------

 NO OUTPUT CONTROL FOR STRESS PERIOD   30   TIME STEP   25
 
 SOLVING FOR HEAD 
                                                   Max.-Head-Change                         Max.-Flux-Residual
  Residual-Control   Outer-Iter.   Inner-Iter.     Column Row Layer    Maximum-Head-Change  Column Row Layer    Maximum-Flux-Residual          L2-NORM 
          0                 1           2             1    1     1       0.4668854458E-02       2   13    1         0.2557522983E+00      0.7623376264E+00
          0                 2           2             2   13     1      -0.2262126034E-02       2   13    1        -0.1316685392E+00      0.2357421809E+00
          0                 3           2             4   13     1      -0.5614530031E-03       4   13    1        -0.3465558455E-01      0.4699052925E-01
          0                 4           2             4   13     1      -0.2230318955E-03       4   13    1        -0.1375005160E-01      0.2060566726E-01
          0                 5           2             4   13     1      -0.1458065199E-03       4   13    1        -0.8981752704E-02      0.1411075741E-01
          0                 6           1             2   13     1       0.7859054150E-05       2   13    1         0.4700386444E-03      0.8170992588E-03

    ------------------------------------------------
       NWT REQUIRED            6 OUTER ITERATIONS 
       AND A TOTAL OF         11 INNER ITERATIONS.
    ------------------------------------------------

 NO OUTPUT CONTROL FOR STRESS PERIOD   30   TIME STEP   26
 
 SOLVING FOR HEAD 
                                                   Max.-Head-Change                         Max.-Flux-Residual
  Residual-Control   Outer-Iter.   Inner-Iter.     Column Row Layer    Maximum-Head-Change  Column Row Layer    Maximum-Flux-Residual          L2-NORM 
          0                 1           2             1    1     1       0.4663562713E-02       2   13    1         0.2476011192E+00      0.7534610294E+00
          0                 2           2             2   13     1      -0.2235679386E-02       2   13    1        -0.1301621852E+00      0.2314758393E+00
          0                 3           2             4   13     1      -0.5727979963E-03       4   13    1        -0.3530927970E-01      0.5053645838E-01
          0                 4           2             4   13     1      -0.2234849892E-03       4   13    1        -0.1378178186E-01      0.2043108961E-01
          0                 5           2             4   13     1      -0.1459926236E-03       4   13    1        -0.8992965439E-02      0.1414166681E-01
          0                 6           1             2   13     1       0.7855450699E-05       2   13    1         0.4697979020E-03      0.8190981945E-03

    ------------------------------------------------
       NWT REQUIRED            6 OUTER ITERATIONS 
       AND A TOTAL OF         11 INNER ITERATIONS.
    ------------------------------------------------

 NO OUTPUT CONTROL FOR STRESS PERIOD   30   TIME STEP   27
 
 SOLVING FOR HEAD 
                                                   Max.-Head-Change                         Max.-Flux-Residual
  Residual-Control   Outer-Iter.   Inner-Iter.     Column Row Layer    Maximum-Head-Change  Column Row Layer    Maximum-Flux-Residual          L2-NORM 
          0                 1           2             1    1     1       0.4658290158E-02       1    1    1         0.2418442360E+00      0.7453064147E+00
          0                 2           2             2   13     1      -0.2210444117E-02       2   13    1        -0.1287234015E+00      0.2275252405E+00
          0                 3           2             4   13     1      -0.5842845155E-03       4   13    1        -0.3597631431E-01      0.5410771064E-01
          0                 4           2             4   13     1      -0.2239001857E-03       4   13    1        -0.1381019893E-01      0.2029963131E-01
          0                 5           2             4   13     1      -0.1460597214E-03       4   13    1        -0.8996931134E-02      0.1415615277E-01
          0                 6           1             2   13     1       0.7868382533E-05       2   13    1         0.4705683477E-03      0.8204739850E-03

    ------------------------------------------------
       NWT REQUIRED            6 OUTER ITERATIONS 
       AND A TOTAL OF         11 INNER ITERATIONS.
    ------------------------------------------------

 NO OUTPUT CONTROL FOR STRESS PERIOD   30   TIME STEP   28
 
 SOLVING FOR HEAD 
                                                   Max.-Head-Change                         Max.-Flux-Residual
  Residual-Control   Outer-Iter.   Inner-Iter.     Column Row Layer    Maximum-Head-Change  Column Row Layer    Maximum-Flux-Residual          L2-NORM 
          0                 1           2             1    1     1       0.4653013681E-02       1    1    1         0.2415696680E+00      0.7377761072E+00
          0                 2           2             2   13     1      -0.2186321171E-02       2   13    1        -0.1273467504E+00      0.2238521846E+00
          0                 3           2             4   13     1      -0.5953181212E-03       4   13    1        -0.3665610848E-01      0.5522418874E-01
          0                 4           2             4   13     1      -0.2247391311E-03       4   13    1        -0.1382955307E-01      0.2199698294E-01
          0                 5           2             4   13     1      -0.1461288683E-03       4   13    1        -0.8998672236E-02      0.1429358444E-01
          0                 6           1             2   13     1       0.7871284110E-05       3   13    1         0.4789469167E-03      0.8307748326E-03

    ------------------------------------------------
       NWT REQUIRED            6 OUTER ITERATIONS 
       AND A TOTAL OF         11 INNER ITERATIONS.
    ------------------------------------------------

 NO OUTPUT CONTROL FOR STRESS PERIOD   30   TIME STEP   29
 
 SOLVING FOR HEAD 
                                                   Max.-Head-Change                         Max.-Flux-Residual
  Residual-Control   Outer-Iter.   Inner-Iter.     Column Row Layer    Maximum-Head-Change  Column Row Layer    Maximum-Flux-Residual          L2-NORM 
          0                 1           2             1    1     1       0.4647779209E-02       1    1    1         0.2412972866E+00      0.7308307025E+00
          0                 2           2             2   13     1      -0.2163224777E-02       2   13    1        -0.1260275501E+00      0.2204220947E+00
          0                 3           2             4   13     1      -0.6065000062E-03       4   13    1        -0.3734489894E-01      0.5636671725E-01
          0                 4           2             4   13     1      -0.2250479903E-03       4   13    1        -0.1384877882E-01      0.2197439271E-01
          0                 5           2             4   13     1      -0.1461211369E-03       4   13    1        -0.8990393908E-02      0.1471312785E-01
          0                 6           1             2   13     1       0.7717803238E-05       2   13    1         0.4678595024E-03      0.7574075236E-03

    ------------------------------------------------
       NWT REQUIRED            6 OUTER ITERATIONS 
       AND A TOTAL OF         11 INNER ITERATIONS.
    ------------------------------------------------

 NO OUTPUT CONTROL FOR STRESS PERIOD   30   TIME STEP   30



 STREAM LISTING     PERIOD     30   STEP       30

 LAYER ROW COL. STREAM  RCH.  FLOW INTO     FLOW TO   FLOW OUT OF   OVRLND.     DIRECT     STREAM       STREAM     STREAM     STREAM   STREAMBED  STREAMBED
                SEG.NO.  NO.  STRM. RCH.    AQUIFER    STRM. RCH.    RUNOFF     PRECIP       ET          HEAD       DEPTH      WIDTH   CONDCTNC.   GRADIENT

   1    1    1     1     1    7.4248E+01  4.1988E-01   7.3828E+01  0.000E+00  0.000E+00  0.000E+00  1.09474E+03  1.690E+00  1.990E+01  8.954E-02  1.563E+00
   1    2    2     1     2    7.3828E+01  6.5043E-01   7.3177E+01  0.000E+00  0.000E+00  0.000E+00  1.08974E+03  1.684E+00  1.984E+01  1.389E-01  1.561E+00
   1    3    3     1     3    7.3177E+01  5.5489E-01   7.2623E+01  0.000E+00  0.000E+00  0.000E+00  1.08410E+03  1.677E+00  1.977E+01  1.186E-01  1.559E+00
   1    3    4     1     4    7.2623E+01  5.1112E-01   7.2111E+01  0.000E+00  0.000E+00  0.000E+00  1.07908E+03  1.671E+00  1.972E+01  1.094E-01  1.557E+00
   1    4    5     2     1    7.0111E+01  4.0856E-01   6.9703E+01  0.000E+00  0.000E+00  0.000E+00  1.07417E+03  2.238E+00  1.200E+01  7.800E-02  1.746E+00
   1    5    6     2     2    6.9703E+01  3.1386E-01   6.9389E+01  0.000E+00  0.000E+00  0.000E+00  1.06874E+03  2.231E+00  1.200E+01  6.000E-02  1.744E+00
   1    6    6     2     3    6.9389E+01  3.1350E-01   6.9075E+01  0.000E+00  0.000E+00  0.000E+00  1.06402E+03  2.225E+00  1.200E+01  6.000E-02  1.742E+00
   1    7    6     2     4    6.9075E+01  3.1314E-01   6.8762E+01  0.000E+00  0.000E+00  0.000E+00  1.05929E+03  2.219E+00  1.200E+01  6.000E-02  1.740E+00
   1    8    6     2     5    6.8762E+01  3.1277E-01   6.8450E+01  0.000E+00  0.000E+00  0.000E+00  1.05457E+03  2.213E+00  1.200E+01  6.000E-02  1.738E+00
   1    3    5     3     1    2.0000E+00  2.8252E-01   1.7175E+00  0.000E+00  0.000E+00  0.000E+00  1.07555E+03  1.909E+00  9.636E+00  7.227E-02  1.955E+00
   1    3    6     3     2    1.7175E+00  2.4905E-01   1.4684E+00  0.000E+00  0.000E+00  0.000E+00  1.07264E+03  1.727E+00  8.909E+00  6.682E-02  1.864E+00
   1    3    7     3     3    1.4684E+00  1.9718E-01   1.2712E+00  0.000E+00  0.000E+00  0.000E+00  1.06987E+03  1.555E+00  8.218E+00  5.547E-02  1.777E+00
   1    4    8     3     4    1.2712E+00  2.2567E-01   1.0456E+00  0.000E+00  0.000E+00  0.000E+00  1.06682E+03  1.364E+00  7.455E+00  6.709E-02  1.682E+00
   1    5    8     3     5    1.0456E+00  1.5790E-01   8.8768E-01  0.000E+00  0.000E+00  0.000E+00  1.06362E+03  1.164E+00  6.655E+00  4.991E-02  1.582E+00
   1    6    8     3     6    8.8768E-01  5.5980E-02   8.3170E-01  0.000E+00  0.000E+00  0.000E+00  1.06158E+03  1.036E+00  6.145E+00  1.844E-02  1.518E+00
   1    5   10     4     1    1.0000E+01  9.0919E-02   9.9091E+00  0.000E+00  0.000E+00  0.000E+00  1.07836E+03  6.368E-01  1.000E+01  2.500E-02  1.212E+00
   1    5    9     4     2    9.9091E+00  1.8158E-01   9.7275E+00  0.000E+00  0.000E+00  0.000E+00  1.07154E+03  6.315E-01  1.000E+01  5.000E-02  1.211E+00
   1    6    8     4     3    9.7275E+00  1.2689E-01   9.6006E+00  0.000E+00  0.000E+00  0.000E+00  1.06381E+03  6.256E-01  1.000E+01  3.500E-02  1.209E+00
   1    6    8     5     1    1.0432E+01  2.2686E-01   1.0205E+01  0.000E+00  0.000E+00  0.000E+00  1.05868E+03  6.790E-01  1.542E+01  6.166E-02  1.226E+00
   1    7    7     5     2    1.0205E+01  2.7894E-01   9.9265E+00  0.000E+00  0.000E+00  0.000E+00  1.05417E+03  6.732E-01  1.519E+01  7.594E-02  1.224E+00
   1    8    7     5     3    9.9265E+00  1.9221E-01   9.7343E+00  0.000E+00  0.000E+00  0.000E+00  1.04992E+03  6.676E-01  1.497E+01  5.241E-02  1.223E+00
   1    8    6     5     4    9.7343E+00  1.3577E-01   9.5985E+00  0.000E+00  0.000E+00  0.000E+00  1.04691E+03  6.637E-01  1.482E+01  3.706E-02  1.221E+00
   1    9    6     6     1    7.0728E+01  3.1655E-01   7.0412E+01  0.000E+00  0.000E+00  0.000E+00  1.04500E+03  2.276E+00  1.200E+01  6.000E-02  1.759E+00
   1   10    7     6     2    7.0412E+01  3.1618E-01   7.0096E+01  0.000E+00  0.000E+00  0.000E+00  1.04045E+03  2.270E+00  1.200E+01  6.000E-02  1.757E+00
   1   11    7     6     3    7.0096E+01  3.1582E-01   6.9780E+01  0.000E+00  0.000E+00  0.000E+00  1.03590E+03  2.264E+00  1.200E+01  6.000E-02  1.755E+00
   1   12    7     6     4    6.9780E+01  3.1545E-01   6.9464E+01  0.000E+00  0.000E+00  0.000E+00  1.03135E+03  2.257E+00  1.200E+01  6.000E-02  1.752E+00
   1   13    7     6     5    6.9464E+01  2.5372E-02   6.9439E+01  0.000E+00  0.000E+00  0.000E+00  1.02816E+03  2.254E+00  1.200E+01  2.400E-02  3.524E-01
   1   14    9     7     1    1.5000E+02  1.3389E+00   1.4866E+02  0.000E+00  0.000E+00  0.000E+00  1.03987E+03  2.288E+00  5.529E+01  5.593E-01  7.979E-01
   1   13    8     7     2    1.4866E+02  1.8325E+00   1.4683E+02  0.000E+00  0.000E+00  0.000E+00  1.03478E+03  2.279E+00  5.526E+01  6.148E-01  9.936E-01
   1   13    7     7     3    1.4683E+02  1.4430E+00   1.4539E+02  0.000E+00  0.000E+00  0.000E+00  1.02969E+03  2.271E+00  5.522E+01  5.585E-01  8.613E-01
   1   13    6     8     1    2.1482E+02  1.0764E+00   2.1375E+02  0.000E+00  0.000E+00  0.000E+00  1.02509E+03  3.220E+00  4.669E+01  4.758E-01  7.541E-01
   1   13    5     8     2    2.1375E+02  2.5801E-01   2.1349E+02  0.000E+00  0.000E+00  0.000E+00  1.01884E+03  3.216E+00  4.663E+01  4.752E-01  1.810E-01
   1   13    4     8     3    2.1349E+02 -2.1934E+00   2.1568E+02  0.000E+00  0.000E+00  0.000E+00  1.01260E+03  3.222E+00  4.671E+01  4.760E+00 -1.536E-01
   1   13    3     8     4    2.1568E+02 -3.4214E+00   2.1910E+02  0.000E+00  0.000E+00  0.000E+00  1.00636E+03  3.237E+00  4.694E+01  4.784E+00 -2.384E-01
   1   13    2     8     5    2.1910E+02 -2.4509E+00   2.2156E+02  0.000E+00  0.000E+00  0.000E+00  1.00013E+03  3.254E+00  4.718E+01  4.808E+00 -1.699E-01
   1   13    1     8     6    2.2156E+02 -1.8705E+00   2.2343E+02  0.000E+00  0.000E+00  0.000E+00  9.95141E+02  3.266E+00  4.735E+01  2.895E+00 -2.154E-01
   1    8    6     9     1    7.3199E+00  0.0000E+00   7.3199E+00  0.000E+00  0.000E+00  0.000E+00  1.08063E+03  1.879E+00  4.000E+00  0.000E+00  1.626E+00
   1    8    5     9     2    7.3199E+00  0.0000E+00   7.3199E+00  0.000E+00  0.000E+00  0.000E+00  1.08013E+03  1.879E+00  4.000E+00  0.000E+00  1.626E+00





UNSATURATED ZONE PACKAGE VOLUMETRIC BUDGET FOR  TIME STEP    30 STRESS PERIOD   30
  ------------------------------------------------------------------------------



     CUMULATIVE VOLUMES      L**3       RATES FOR THIS TIME STEP      L**3/T
     ------------------                 ------------------------

           IN:                                      IN:
           ---                                      ---
        INFILTRATION =  1156454466.3079          INFILTRATION =          11.7275

          OUT:                                     OUT:
          ----                                     ----
              UZF ET =  1060409304.5884                UZF ET =          11.6075
        UZF RECHARGE =     1188452.4670          UZF RECHARGE =           0.0052

            IN - OUT =    94856709.2525              IN - OUT =           0.1148

          STORAGE:                                 STORAGE:
          --------                                 --------
      STORAGE CHANGE =    94857678.7525        STORAGE CHANGE =           0.1148

 PERCENT DISCREPANCY IS DIFFERENCE BETWEEN IN-OUT MINUS CHANGE IN STORAGE
 DIVIDED BY THE AVERAGE OF IN AND OUT TIMES 100

 PERCENT DISCREPANCY =          -0.00     PERCENT DISCREPANCY =           0.00






1
  VOLUMETRIC BUDGET FOR ENTIRE MODEL AT END OF TIME STEP   30, STRESS PERIOD  30
  ------------------------------------------------------------------------------

     CUMULATIVE VOLUMES      L**3       RATES FOR THIS TIME STEP      L**3/T
     ------------------                 ------------------------

           IN:                                      IN:
           ---                                      ---
               AG WELLS  =   176029504.0000                 AG WELLS  =           0.0000
      DIVERSION SEGMENTS =   644179456.0000        DIVERSION SEGMENTS =           7.3199
           GW IRRIGATION =           0.0000             GW IRRIGATION =           0.0000
           SW IRRIGATION =           0.0000             SW IRRIGATION =           0.0000
        SYSTEM LOSSES GW =           0.0000          SYSTEM LOSSES GW =           0.0000
        SYSTEM LOSSES SW =           0.0000          SYSTEM LOSSES SW =           0.0000

                TOTAL IN =   820208960.0000                  TOTAL IN =           7.3199

          OUT:                                     OUT:
          ----                                     ----
               AG WELLS  =           0.0000                 AG WELLS  =           0.0000
      DIVERSION SEGMENTS =           0.0000        DIVERSION SEGMENTS =           0.0000
           GW IRRIGATION =   176029504.0000             GW IRRIGATION =           0.0000
           SW IRRIGATION =   644193344.0000             SW IRRIGATION =           7.3200
        SYSTEM LOSSES GW =           0.0000          SYSTEM LOSSES GW =           0.0000
        SYSTEM LOSSES SW =           0.0000          SYSTEM LOSSES SW =           0.0000

               TOTAL OUT =   820222848.0000                 TOTAL OUT =           7.3200

                IN - OUT =      -13888.0000                  IN - OUT =      -1.4639E-04

     PERCENT DISCREPANCY =          -0.00         PERCENT DISCREPANCY =          -0.00



1
  VOLUMETRIC BUDGET FOR ENTIRE MODEL AT END OF TIME STEP   30, STRESS PERIOD  30
  ------------------------------------------------------------------------------

     CUMULATIVE VOLUMES      L**3       RATES FOR THIS TIME STEP      L**3/T
     ------------------                 ------------------------

           IN:                                      IN:
           ---                                      ---
             STORAGE     =   306645856.0000               STORAGE     =           0.6149
       CONSTANT HEAD     =           0.0000         CONSTANT HEAD     =           0.0000
     HEAD DEP BOUNDS     =    21822744.0000       HEAD DEP BOUNDS     =           0.2860
      STREAM LEAKAGE     =   909703424.0000        STREAM LEAKAGE     =          13.4378
        UZF RECHARGE     =     1188452.5000          UZF RECHARGE     =       5.1660E-03
               GW ET     =           0.0000                 GW ET     =           0.0000
     SURFACE LEAKAGE     =           0.0000       SURFACE LEAKAGE     =           0.0000
           AG WELLS      =           0.0000             AG WELLS      =           0.0000

                TOTAL IN =  1239360512.0000                  TOTAL IN =          14.3438

          OUT:                                     OUT:
          ----                                     ----
             STORAGE     =   214030912.0000               STORAGE     =           3.7886
       CONSTANT HEAD     =           0.0000         CONSTANT HEAD     =           0.0000
     HEAD DEP BOUNDS     =    22202156.0000       HEAD DEP BOUNDS     =           0.2959
      STREAM LEAKAGE     =   824326208.0000        STREAM LEAKAGE     =           9.9363
        UZF RECHARGE     =           0.0000          UZF RECHARGE     =           0.0000
               GW ET     =     2781480.7500                 GW ET     =           0.3231
     SURFACE LEAKAGE     =           0.0000       SURFACE LEAKAGE     =           0.0000
           AG WELLS      =   176029504.0000             AG WELLS      =           0.0000

               TOTAL OUT =  1239370240.0000                 TOTAL OUT =          14.3438

                IN - OUT =       -9728.0000                  IN - OUT =      -6.6757E-05

     PERCENT DISCREPANCY =          -0.00         PERCENT DISCREPANCY =          -0.00






         TIME SUMMARY AT END OF TIME STEP   30 IN STRESS PERIOD   30
                    SECONDS     MINUTES      HOURS       DAYS        YEARS
                    -----------------------------------------------------------
   TIME STEP LENGTH  87667.      1461.1      24.352      1.0147     2.77799E-03
 STRESS PERIOD TIME 2.63000E+06  43833.      730.56      30.440     8.33397E-02
         TOTAL TIME 7.63565E+07 1.27261E+06  21210.      883.76      2.4196    
1
1
                            STRESS PERIOD NO.   31, LENGTH =   2630000.    
                            -----------------------------------------------

                              NUMBER OF TIME STEPS =    30

                               MULTIPLIER FOR DELT =     1.000

                            INITIAL TIME STEP SIZE =   87666.66    

 REUSING NON-PARAMETER GHB CELLS FROM LAST STRESS PERIOD

      2 GHB CELLS

 REUSING STREAM SEGMENT DATA FROM LAST STRESS PERIOD



            AREAL INFILTRATION RATE
 READING ON UNIT   19 WITH FORMAT: (10F4.0)            

            1           2           3           4           5           6           7           8           9          10
 ........................................................................................................................
   1   1.2000E-09   0.000       0.000       0.000       0.000       0.000       0.000       0.000       0.000       0.000    
   2   2.1000E-09  2.0000E-09  8.0000E-10  8.5000E-09   0.000       0.000       0.000       0.000       0.000       0.000    
   3   5.0000E-10  1.1000E-09  8.8000E-09  5.5000E-09   0.000       0.000       0.000       0.000       0.000       0.000    
   4   8.5000E-09  1.1000E-09  1.1000E-09  1.1000E-09  2.0000E-09   0.000       0.000       0.000       0.000       0.000    
   5   8.5000E-09  1.1000E-09  1.1000E-09  1.1000E-09  1.1000E-09   0.000       0.000       0.000       0.000       0.000    
   6   8.5000E-09  5.2000E-09  2.1000E-09  1.1000E-09  1.5000E-09   0.000       0.000       0.000       0.000       0.000    
   7   8.5000E-09  5.2000E-09  2.1000E-09  1.2000E-09  2.0000E-09   0.000       0.000       0.000       0.000       0.000    
   8   5.0000E-10  5.2000E-09  2.1000E-09  1.2000E-09  5.0000E-09   0.000       0.000       0.000       0.000       0.000    
   9   5.0000E-10  5.2000E-09  2.1000E-09  1.2000E-09  5.0000E-09   0.000       0.000       0.000       0.000       0.000    
  10   5.0000E-10  5.2000E-09  2.1000E-09  1.2000E-09  5.8000E-09   0.000       0.000       0.000       0.000       0.000    
  11   1.0000E-10  1.1000E-09  1.1000E-09  1.2000E-09  5.0000E-09   0.000       0.000       0.000       0.000       0.000    
  12   1.1000E-09  1.1000E-09  1.1000E-09  1.1000E-09  2.0000E-09   0.000       0.000       0.000       0.000       0.000    
  13   1.1000E-09  2.2000E-09  2.2000E-09  2.1000E-09  1.0000E-09   0.000       0.000       0.000       0.000       0.000    
  14   2.0000E-10  5.5000E-09  5.5000E-09  5.2000E-09  1.0000E-09   0.000       0.000       0.000       0.000       0.000    
  15    0.000      8.8000E-09  8.8000E-09   0.000       0.000       0.000       0.000       0.000       0.000       0.000    

                  ET RATE =  1.500000E-07

 USING ET EXTINCTION DEPTH FROM PREVIOUS STRESS PERIOD. CURRENT PERIOD IS:      31

 USING EXTINCTION WATER CONTENT FROM PREVIOUS STRESS PERIOD. CURRENT PERIOD IS:      31

 USING AIR ENTRY PRESSURE FROM PREVIOUS STRESS PERIOD. CURRENT PERIOD IS:      31

 USING ROOT PRESSURE HEAD FROM PREVIOUS STRESS PERIOD. CURRENT PERIOD IS:      31

 USING ROOT ACTIVITY FROM PREVIOUS STRESS PERIOD. CURRENT PERIOD IS:      31

 PROCESSING AG STRESS PERIOD DATA

 READING AG STRESS PERIOD DATA

 READING IRRIGATION SEGMENT

 READING IRRIGATION WELL

 READING SUPPLEMENTAL WELL

 END PROCESSING AG STRESS PERIOD DATA OPTIONS
 
 SOLVING FOR HEAD 
                                                   Max.-Head-Change                         Max.-Flux-Residual
  Residual-Control   Outer-Iter.   Inner-Iter.     Column Row Layer    Maximum-Head-Change  Column Row Layer    Maximum-Flux-Residual          L2-NORM 
          0                 1           2             3   13     1      -0.5186849385E-02       3   13    1        -0.3345640799E+00      0.7171705246E+00
          0                 2           2             2   13     1      -0.6407376941E-02       2   13    1        -0.3725206155E+00      0.6563781372E+00
          0                 3           2             4   13     1       0.3488996049E-03       4   13    1         0.2306740575E-01      0.3353989901E-01
          0                 4           1             4   13     1      -0.1121747648E-03       4   13    1        -0.7618763817E-02      0.1237153399E-01
          0                 5           1             2   13     1      -0.2351172139E-04       2   13    1        -0.1444692298E-02      0.2431247344E-02

    ------------------------------------------------
       NWT REQUIRED            5 OUTER ITERATIONS 
       AND A TOTAL OF          8 INNER ITERATIONS.
    ------------------------------------------------

 NO OUTPUT CONTROL FOR STRESS PERIOD   31   TIME STEP    1
 
 SOLVING FOR HEAD 
                                                   Max.-Head-Change                         Max.-Flux-Residual
  Residual-Control   Outer-Iter.   Inner-Iter.     Column Row Layer    Maximum-Head-Change  Column Row Layer    Maximum-Flux-Residual          L2-NORM 
          0                 1           2             3   13     1      -0.4985160025E-02       3   13    1        -0.3203381057E+00      0.6632901347E+00
          0                 2           2             2   13     1      -0.6792831168E-02       4   13    1        -0.3867238073E+00      0.6872373747E+00
          0                 3           2             1   13     1      -0.2012553307E-03       1   13    1        -0.1128995496E-01      0.2200618817E-01
          0                 4           2             2   13     1      -0.3708418223E-03       4   13    1        -0.2223581232E-01      0.3844851175E-01
          0                 5           1             2   13     1      -0.4041493889E-04       4   13    1        -0.2384109868E-02      0.4354247538E-02

    ------------------------------------------------
       NWT REQUIRED            5 OUTER ITERATIONS 
       AND A TOTAL OF          9 INNER ITERATIONS.
    ------------------------------------------------

 NO OUTPUT CONTROL FOR STRESS PERIOD   31   TIME STEP    2
 
 SOLVING FOR HEAD 
                                                   Max.-Head-Change                         Max.-Flux-Residual
  Residual-Control   Outer-Iter.   Inner-Iter.     Column Row Layer    Maximum-Head-Change  Column Row Layer    Maximum-Flux-Residual          L2-NORM 
          0                 1           2             1    1     1       0.3862130430E-02       1    1    1         0.2004848419E+00      0.5669320492E+00
          0                 2           2             2   13     1      -0.6674708390E-02       4   13    1        -0.4018828193E+00      0.7052575835E+00
          0                 3           2             2   13     1      -0.3686451526E-03       2   13    1        -0.2146582272E-01      0.2940482127E-01
          0                 4           2             2   13     1      -0.3558576111E-03       4   13    1        -0.2260628467E-01      0.3873118673E-01
          0                 5           1             2   13     1      -0.5304338519E-04       2   13    1        -0.3082233833E-02      0.4968035856E-02

    ------------------------------------------------
       NWT REQUIRED            5 OUTER ITERATIONS 
       AND A TOTAL OF          9 INNER ITERATIONS.
    ------------------------------------------------

 NO OUTPUT CONTROL FOR STRESS PERIOD   31   TIME STEP    3
 
 SOLVING FOR HEAD 
                                                   Max.-Head-Change                         Max.-Flux-Residual
  Residual-Control   Outer-Iter.   Inner-Iter.     Column Row Layer    Maximum-Head-Change  Column Row Layer    Maximum-Flux-Residual          L2-NORM 
          0                 1           2             1    1     1       0.3858258537E-02       1    1    1         0.2002834035E+00      0.5338644636E+00
          0                 2           2             2   13     1      -0.6739175935E-02       4   13    1        -0.4141546864E+00      0.7204204505E+00
          0                 3           2             2   13     1      -0.3812454545E-03       4   13    1        -0.2282991723E-01      0.3626123331E-01
          0                 4           2             2   13     1      -0.3605155567E-03       4   13    1        -0.2239928242E-01      0.3898089966E-01
          0                 5           1             2   13     1      -0.5495101762E-04       4   13    1        -0.3348013382E-02      0.5557115905E-02

    ------------------------------------------------
       NWT REQUIRED            5 OUTER ITERATIONS 
       AND A TOTAL OF          9 INNER ITERATIONS.
    ------------------------------------------------

 NO OUTPUT CONTROL FOR STRESS PERIOD   31   TIME STEP    4
 
 SOLVING FOR HEAD 
                                                   Max.-Head-Change                         Max.-Flux-Residual
  Residual-Control   Outer-Iter.   Inner-Iter.     Column Row Layer    Maximum-Head-Change  Column Row Layer    Maximum-Flux-Residual          L2-NORM 
          0                 1           2             1    1     1       0.3854399829E-02       1    1    1         0.2000826522E+00      0.5440443809E+00
          0                 2           2             2   13     1      -0.6800437266E-02       4   13    1        -0.4240809226E+00      0.7331521927E+00
          0                 3           2             2   13     1      -0.3893009291E-03       4   13    1        -0.2278888824E-01      0.4099632639E-01
          0                 4           2             2   13     1      -0.3654522903E-03       4   13    1        -0.2272358787E-01      0.3929744402E-01
          0                 5           1             2   13     1      -0.5590305120E-04       4   13    1        -0.3401825867E-02      0.5953315617E-02

    ------------------------------------------------
       NWT REQUIRED            5 OUTER ITERATIONS 
       AND A TOTAL OF          9 INNER ITERATIONS.
    ------------------------------------------------

 NO OUTPUT CONTROL FOR STRESS PERIOD   31   TIME STEP    5
 
 SOLVING FOR HEAD 
                                                   Max.-Head-Change                         Max.-Flux-Residual
  Residual-Control   Outer-Iter.   Inner-Iter.     Column Row Layer    Maximum-Head-Change  Column Row Layer    Maximum-Flux-Residual          L2-NORM 
          0                 1           2             1    1     1       0.3850531215E-02       1    1    1         0.1998813886E+00      0.5767613432E+00
          0                 2           2             2   13     1      -0.6858336385E-02       4   13    1        -0.4321075464E+00      0.7438446457E+00
          0                 3           2             2   13     1      -0.3933545410E-03       2   13    1        -0.2282923191E-01      0.4107878707E-01
          0                 4           2             2   13     1      -0.3703845042E-03       4   13    1        -0.2304719926E-01      0.3984218913E-01
          0                 5           1             2   13     1      -0.5614347489E-04       4   13    1        -0.3411420194E-02      0.5971316295E-02

    ------------------------------------------------
       NWT REQUIRED            5 OUTER ITERATIONS 
       AND A TOTAL OF          9 INNER ITERATIONS.
    ------------------------------------------------

 NO OUTPUT CONTROL FOR STRESS PERIOD   31   TIME STEP    6
 
 SOLVING FOR HEAD 
                                                   Max.-Head-Change                         Max.-Flux-Residual
  Residual-Control   Outer-Iter.   Inner-Iter.     Column Row Layer    Maximum-Head-Change  Column Row Layer    Maximum-Flux-Residual          L2-NORM 
          0                 1           2             1    1     1       0.3846698717E-02       4   13    1         0.2418626579E+00      0.6177629871E+00
          0                 2           2             2   13     1      -0.6912764268E-02       4   13    1        -0.4385926417E+00      0.7528294532E+00
          0                 3           2             2   13     1      -0.3943672158E-03       2   13    1        -0.2288949004E-01      0.4092575448E-01
          0                 4           2             2   13     1      -0.3754952364E-03       4   13    1        -0.2337277077E-01      0.4039538098E-01
          0                 5           1             2   13     1      -0.5577873379E-04       4   13    1        -0.3385198012E-02      0.5930314699E-02

    ------------------------------------------------
       NWT REQUIRED            5 OUTER ITERATIONS 
       AND A TOTAL OF          9 INNER ITERATIONS.
    ------------------------------------------------

 NO OUTPUT CONTROL FOR STRESS PERIOD   31   TIME STEP    7
 
 SOLVING FOR HEAD 
                                                   Max.-Head-Change                         Max.-Flux-Residual
  Residual-Control   Outer-Iter.   Inner-Iter.     Column Row Layer    Maximum-Head-Change  Column Row Layer    Maximum-Flux-Residual          L2-NORM 
          0                 1           2             4   13     1       0.4514666680E-02       4   13    1         0.2909255547E+00      0.6594733403E+00
          0                 2           2             2   13     1      -0.6963692407E-02       4   13    1        -0.4438298805E+00      0.7603920077E+00
          0                 3           2             2   13     1      -0.3934043926E-03       2   13    1        -0.2283474071E-01      0.4062932217E-01
          0                 4           2             2   13     1      -0.3807819396E-03       4   13    1        -0.2369785258E-01      0.4095842594E-01
          0                 5           1             2   13     1      -0.5498119152E-04       4   13    1        -0.3332963663E-02      0.5841844178E-02

    ------------------------------------------------
       NWT REQUIRED            5 OUTER ITERATIONS 
       AND A TOTAL OF          9 INNER ITERATIONS.
    ------------------------------------------------

 NO OUTPUT CONTROL FOR STRESS PERIOD   31   TIME STEP    8
 
 SOLVING FOR HEAD 
                                                   Max.-Head-Change                         Max.-Flux-Residual
  Residual-Control   Outer-Iter.   Inner-Iter.     Column Row Layer    Maximum-Head-Change  Column Row Layer    Maximum-Flux-Residual          L2-NORM 
          0                 1           2             4   13     1       0.5131395870E-02       4   13    1         0.3306467448E+00      0.6984540157E+00
          0                 2           2             2   13     1      -0.7011204416E-02       4   13    1        -0.4480568473E+00      0.7667712670E+00
          0                 3           2             2   13     1      -0.3912814369E-03       2   13    1        -0.2271233170E-01      0.4026431230E-01
          0                 4           2             2   13     1      -0.3861081505E-03       4   13    1        -0.2402179986E-01      0.4152132084E-01
          0                 5           1             2   13     1      -0.5392876753E-04       4   13    1        -0.3262536347E-02      0.5722188267E-02

    ------------------------------------------------
       NWT REQUIRED            5 OUTER ITERATIONS 
       AND A TOTAL OF          9 INNER ITERATIONS.
    ------------------------------------------------

 NO OUTPUT CONTROL FOR STRESS PERIOD   31   TIME STEP    9
 
 SOLVING FOR HEAD 
                                                   Max.-Head-Change                         Max.-Flux-Residual
  Residual-Control   Outer-Iter.   Inner-Iter.     Column Row Layer    Maximum-Head-Change  Column Row Layer    Maximum-Flux-Residual          L2-NORM 
          0                 1           2             4   13     1       0.5630962578E-02       4   13    1         0.3628129979E+00      0.7334310124E+00
          0                 2           2             2   13     1      -0.7055406722E-02       4   13    1        -0.4514665486E+00      0.7721778832E+00
          0                 3           2             2   13     1      -0.3884745652E-03       2   13    1        -0.2255013942E-01      0.3985756200E-01
          0                 4           2             2   13     1      -0.3915168373E-03       4   13    1        -0.2434615360E-01      0.4208933377E-01
          0                 5           1             2   13     1      -0.5268201459E-04       4   13    1        -0.3181734262E-02      0.5585701861E-02

    ------------------------------------------------
       NWT REQUIRED            5 OUTER ITERATIONS 
       AND A TOTAL OF          9 INNER ITERATIONS.
    ------------------------------------------------

 NO OUTPUT CONTROL FOR STRESS PERIOD   31   TIME STEP   10
 
 SOLVING FOR HEAD 
                                                   Max.-Head-Change                         Max.-Flux-Residual
  Residual-Control   Outer-Iter.   Inner-Iter.     Column Row Layer    Maximum-Head-Change  Column Row Layer    Maximum-Flux-Residual          L2-NORM 
          0                 1           2             4   13     1       0.6035576660E-02       4   13    1         0.3888571650E+00      0.7641722780E+00
          0                 2           2             2   13     1      -0.7104786289E-02       4   13    1        -0.4547299182E+00      0.7776386514E+00
          0                 3           2             2   13     1      -0.3773663926E-03       2   13    1        -0.2190576354E-01      0.3861572349E-01
          0                 4           2             2   13     1      -0.3974421606E-03       4   13    1        -0.2470095243E-01      0.4270954035E-01
          0                 5           1             2   13     1      -0.5039295711E-04       4   13    1        -0.3035468078E-02      0.5335770329E-02

    ------------------------------------------------
       NWT REQUIRED            5 OUTER ITERATIONS 
       AND A TOTAL OF          9 INNER ITERATIONS.
    ------------------------------------------------

 NO OUTPUT CONTROL FOR STRESS PERIOD   31   TIME STEP   11
 
 SOLVING FOR HEAD 
                                                   Max.-Head-Change                         Max.-Flux-Residual
  Residual-Control   Outer-Iter.   Inner-Iter.     Column Row Layer    Maximum-Head-Change  Column Row Layer    Maximum-Flux-Residual          L2-NORM 
          0                 1           2             4   13     1       0.6363351366E-02       4   13    1         0.4099479856E+00      0.7908781732E+00
          0                 2           2             2   13     1      -0.7139697262E-02       4   13    1        -0.4567561130E+00      0.7812106972E+00
          0                 3           2             4   13     1      -0.3786498441E-03       4   13    1        -0.2239633401E-01      0.3937781807E-01
          0                 4           2             4   13     1      -0.4213514840E-03       4   13    1        -0.2491027094E-01      0.4320957072E-01
          0                 5           1             4   13     1      -0.5020512856E-04       4   13    1        -0.2967918772E-02      0.5214056374E-02

    ------------------------------------------------
       NWT REQUIRED            5 OUTER ITERATIONS 
       AND A TOTAL OF          9 INNER ITERATIONS.
    ------------------------------------------------

 NO OUTPUT CONTROL FOR STRESS PERIOD   31   TIME STEP   12
 
 SOLVING FOR HEAD 
                                                   Max.-Head-Change                         Max.-Flux-Residual
  Residual-Control   Outer-Iter.   Inner-Iter.     Column Row Layer    Maximum-Head-Change  Column Row Layer    Maximum-Flux-Residual          L2-NORM 
          0                 1           2             4   13     1       0.7286908182E-02       4   13    1         0.4207845107E+00      0.8106724285E+00
          0                 2           2             4   13     1      -0.7624636527E-02       4   13    1        -0.5036899625E+00      0.8114875287E+00
          0                 3           2             4   13     1      -0.4722301605E-03       4   13    1        -0.2798314321E-01      0.4282634079E-01
          0                 4           2             4   13     1      -0.4201140038E-03       4   13    1        -0.2483333299E-01      0.4354322594E-01
          0                 5           1             4   13     1      -0.4925042103E-04       4   13    1        -0.2911743672E-02      0.5087263570E-02

    ------------------------------------------------
       NWT REQUIRED            5 OUTER ITERATIONS 
       AND A TOTAL OF          9 INNER ITERATIONS.
    ------------------------------------------------

 NO OUTPUT CONTROL FOR STRESS PERIOD   31   TIME STEP   13
 
 SOLVING FOR HEAD 
                                                   Max.-Head-Change                         Max.-Flux-Residual
  Residual-Control   Outer-Iter.   Inner-Iter.     Column Row Layer    Maximum-Head-Change  Column Row Layer    Maximum-Flux-Residual          L2-NORM 
          0                 1           2             4   13     1       0.7418659114E-02       4   13    1         0.4283183145E+00      0.8272186836E+00
          0                 2           2             4   13     1      -0.7507967430E-02       4   13    1        -0.4959035639E+00      0.8084707018E+00
          0                 3           2             4   13     1      -0.6092774626E-03       4   13    1        -0.3616576318E-01      0.4849366757E-01
          0                 4           2             4   13     1      -0.4159156499E-03       4   13    1        -0.2457961410E-01      0.4379543213E-01
          0                 5           1             4   13     1      -0.4841898571E-04       4   13    1        -0.2862933510E-02      0.4955627818E-02

    ------------------------------------------------
       NWT REQUIRED            5 OUTER ITERATIONS 
       AND A TOTAL OF          9 INNER ITERATIONS.
    ------------------------------------------------

 NO OUTPUT CONTROL FOR STRESS PERIOD   31   TIME STEP   14
 
 SOLVING FOR HEAD 
                                                   Max.-Head-Change                         Max.-Flux-Residual
  Residual-Control   Outer-Iter.   Inner-Iter.     Column Row Layer    Maximum-Head-Change  Column Row Layer    Maximum-Flux-Residual          L2-NORM 
          0                 1           2             4   13     1       0.7538643741E-02       4   13    1         0.4351896149E+00      0.8420447313E+00
          0                 2           2             4   13     1      -0.7404533267E-02       4   13    1        -0.4889991488E+00      0.8060376477E+00
          0                 3           2             4   13     1      -0.7310517929E-03       4   13    1        -0.4343822613E-01      0.5392064632E-01
          0                 4           2             2   13     1      -0.4197752016E-03       4   13    1        -0.2439197304E-01      0.4410493301E-01
          0                 5           1             4   13     1      -0.4704908756E-04       4   13    1        -0.2782297084E-02      0.4774694805E-02

    ------------------------------------------------
       NWT REQUIRED            5 OUTER ITERATIONS 
       AND A TOTAL OF          9 INNER ITERATIONS.
    ------------------------------------------------

 NO OUTPUT CONTROL FOR STRESS PERIOD   31   TIME STEP   15
 
 SOLVING FOR HEAD 
                                                   Max.-Head-Change                         Max.-Flux-Residual
  Residual-Control   Outer-Iter.   Inner-Iter.     Column Row Layer    Maximum-Head-Change  Column Row Layer    Maximum-Flux-Residual          L2-NORM 
          0                 1           2             4   13     1       0.7647656332E-02       4   13    1         0.4414402345E+00      0.8553276942E+00
          0                 2           2             4   13     1      -0.7310437954E-02       4   13    1        -0.4827190242E+00      0.8038339308E+00
          0                 3           2             4   13     1      -0.8414484274E-03       4   13    1        -0.5003133095E-01      0.5917485491E-01
          0                 4           2             2   13     1      -0.4255776885E-03       2   13    1        -0.2469079060E-01      0.4444075057E-01
          0                 5           1             4   13     1      -0.4558746657E-04       4   13    1        -0.2696184387E-02      0.4588983225E-02

    ------------------------------------------------
       NWT REQUIRED            5 OUTER ITERATIONS 
       AND A TOTAL OF          9 INNER ITERATIONS.
    ------------------------------------------------

 NO OUTPUT CONTROL FOR STRESS PERIOD   31   TIME STEP   16
 
 SOLVING FOR HEAD 
                                                   Max.-Head-Change                         Max.-Flux-Residual
  Residual-Control   Outer-Iter.   Inner-Iter.     Column Row Layer    Maximum-Head-Change  Column Row Layer    Maximum-Flux-Residual          L2-NORM 
          0                 1           2             4   13     1       0.7746826363E-02       4   13    1         0.4471320440E+00      0.8672717786E+00
          0                 2           2             2   13     1      -0.7284813640E-02       4   13    1        -0.4770117777E+00      0.8018820377E+00
          0                 3           2             4   13     1      -0.9414599354E-03       4   13    1        -0.5600440364E-01      0.6413808994E-01
          0                 4           2             2   13     1      -0.4314069024E-03       2   13    1        -0.2502908184E-01      0.4480833090E-01
          0                 5           1             4   13     1      -0.4397505712E-04       4   13    1        -0.2601164982E-02      0.4390361229E-02

    ------------------------------------------------
       NWT REQUIRED            5 OUTER ITERATIONS 
       AND A TOTAL OF          9 INNER ITERATIONS.
    ------------------------------------------------

 NO OUTPUT CONTROL FOR STRESS PERIOD   31   TIME STEP   17
 
 SOLVING FOR HEAD 
                                                   Max.-Head-Change                         Max.-Flux-Residual
  Residual-Control   Outer-Iter.   Inner-Iter.     Column Row Layer    Maximum-Head-Change  Column Row Layer    Maximum-Flux-Residual          L2-NORM 
          0                 1           2             4   13     1       0.7836681674E-02       4   13    1         0.4522947109E+00      0.8779313773E+00
          0                 2           2             2   13     1      -0.7308384128E-02       4   13    1        -0.4718242425E+00      0.8000455665E+00
          0                 3           2             4   13     1      -0.1032043181E-02       4   13    1        -0.6141443265E-01      0.6876678334E-01
          0                 4           2             2   13     1      -0.4372495636E-03       2   13    1        -0.2536816039E-01      0.4520085994E-01
          0                 5           1             4   13     1      -0.4227677587E-04       4   13    1        -0.2501033274E-02      0.4185269649E-02

    ------------------------------------------------
       NWT REQUIRED            5 OUTER ITERATIONS 
       AND A TOTAL OF          9 INNER ITERATIONS.
    ------------------------------------------------

 NO OUTPUT CONTROL FOR STRESS PERIOD   31   TIME STEP   18
 
 SOLVING FOR HEAD 
                                                   Max.-Head-Change                         Max.-Flux-Residual
  Residual-Control   Outer-Iter.   Inner-Iter.     Column Row Layer    Maximum-Head-Change  Column Row Layer    Maximum-Flux-Residual          L2-NORM 
          0                 1           2             4   13     1       0.7918232234E-02       4   13    1         0.4569829246E+00      0.8875545648E+00
          0                 2           2             2   13     1      -0.7329994068E-02       4   13    1        -0.4670976217E+00      0.7984178595E+00
          0                 3           2             4   13     1      -0.1114217746E-02       4   13    1        -0.6632244038E-01      0.7305024619E-01
          0                 4           2             2   13     1      -0.4431232124E-03       2   13    1        -0.2570901542E-01      0.4561998048E-01
          0                 5           1             4   13     1      -0.4044137226E-04       4   13    1        -0.2392782314E-02      0.3969096834E-02

    ------------------------------------------------
       NWT REQUIRED            5 OUTER ITERATIONS 
       AND A TOTAL OF          9 INNER ITERATIONS.
    ------------------------------------------------

 NO OUTPUT CONTROL FOR STRESS PERIOD   31   TIME STEP   19
 
 SOLVING FOR HEAD 
                                                   Max.-Head-Change                         Max.-Flux-Residual
  Residual-Control   Outer-Iter.   Inner-Iter.     Column Row Layer    Maximum-Head-Change  Column Row Layer    Maximum-Flux-Residual          L2-NORM 
          0                 1           2             4   13     1       0.7992222904E-02       4   13    1         0.4612389876E+00      0.8962273022E+00
          0                 2           2             2   13     1      -0.7349785274E-02       4   13    1        -0.4627992313E+00      0.7969477732E+00
          0                 3           2             4   13     1      -0.1188625183E-02       4   13    1        -0.7076671118E-01      0.7698588281E-01
          0                 4           2             2   13     1      -0.4490053392E-03       2   13    1        -0.2605036517E-01      0.4605930922E-01
          0                 5           1             4   13     1      -0.3850888501E-04       4   13    1        -0.2278742690E-02      0.3746717186E-02

    ------------------------------------------------
       NWT REQUIRED            5 OUTER ITERATIONS 
       AND A TOTAL OF          9 INNER ITERATIONS.
    ------------------------------------------------

 NO OUTPUT CONTROL FOR STRESS PERIOD   31   TIME STEP   20
 
 SOLVING FOR HEAD 
                                                   Max.-Head-Change                         Max.-Flux-Residual
  Residual-Control   Outer-Iter.   Inner-Iter.     Column Row Layer    Maximum-Head-Change  Column Row Layer    Maximum-Flux-Residual          L2-NORM 
          0                 1           2             4   13     1       0.8059152850E-02       4   13    1         0.4650903855E+00      0.9040479671E+00
          0                 2           2             4   13     1      -0.7819581495E-02       4   13    1        -0.4625687528E+00      0.7977493691E+00
          0                 3           2             2   13     1      -0.3503492421E-03       2   13    1        -0.2033698145E-01      0.3588870977E-01
          0                 4           2             4   13     1      -0.4733708463E-03       4   13    1        -0.2798664222E-01      0.4850126231E-01
          0                 5           1             2   13     1      -0.3231908586E-04       4   13    1        -0.1894016801E-02      0.3375715674E-02

    ------------------------------------------------
       NWT REQUIRED            5 OUTER ITERATIONS 
       AND A TOTAL OF          9 INNER ITERATIONS.
    ------------------------------------------------

 NO OUTPUT CONTROL FOR STRESS PERIOD   31   TIME STEP   21
 
 SOLVING FOR HEAD 
                                                   Max.-Head-Change                         Max.-Flux-Residual
  Residual-Control   Outer-Iter.   Inner-Iter.     Column Row Layer    Maximum-Head-Change  Column Row Layer    Maximum-Flux-Residual          L2-NORM 
          0                 1           2             4   13     1       0.8119753425E-02       4   13    1         0.4685787327E+00      0.9111151419E+00
          0                 2           2             4   13     1      -0.7826206547E-02       4   13    1        -0.4629603211E+00      0.7988206939E+00
          0                 3           2             2   13     1      -0.3451181409E-03       2   13    1        -0.2003327335E-01      0.3535516272E-01
          0                 4           2             4   13     1      -0.4790139099E-03       4   13    1        -0.2832029788E-01      0.4908463098E-01
          0                 5           1             2   13     1      -0.3006440498E-04       4   13    1        -0.1753646383E-02      0.3133577135E-02

    ------------------------------------------------
       NWT REQUIRED            5 OUTER ITERATIONS 
       AND A TOTAL OF          9 INNER ITERATIONS.
    ------------------------------------------------

 NO OUTPUT CONTROL FOR STRESS PERIOD   31   TIME STEP   22
 
 SOLVING FOR HEAD 
                                                   Max.-Head-Change                         Max.-Flux-Residual
  Residual-Control   Outer-Iter.   Inner-Iter.     Column Row Layer    Maximum-Head-Change  Column Row Layer    Maximum-Flux-Residual          L2-NORM 
          0                 1           2             4   13     1       0.8174397534E-02       4   13    1         0.4717247140E+00      0.9174999642E+00
          0                 2           2             4   13     1      -0.7832187869E-02       4   13    1        -0.4633138998E+00      0.7997944488E+00
          0                 3           2             2   13     1      -0.3440442222E-03       2   13    1        -0.1997077967E-01      0.3526323042E-01
          0                 4           2             4   13     1      -0.4847258087E-03       4   13    1        -0.2865796820E-01      0.4967670722E-01
          0                 5           1             2   13     1      -0.2815219504E-04       4   13    1        -0.1635311155E-02      0.2929996963E-02

    ------------------------------------------------
       NWT REQUIRED            5 OUTER ITERATIONS 
       AND A TOTAL OF          9 INNER ITERATIONS.
    ------------------------------------------------

 NO OUTPUT CONTROL FOR STRESS PERIOD   31   TIME STEP   23
 
 SOLVING FOR HEAD 
                                                   Max.-Head-Change                         Max.-Flux-Residual
  Residual-Control   Outer-Iter.   Inner-Iter.     Column Row Layer    Maximum-Head-Change  Column Row Layer    Maximum-Flux-Residual          L2-NORM 
          0                 1           2             4   13     1       0.8224192919E-02       4   13    1         0.4745917842E+00      0.9233153681E+00
          0                 2           2             4   13     1      -0.7837536282E-02       4   13    1        -0.4636300937E+00      0.8006753760E+00
          0                 3           2             2   13     1      -0.3417651730E-03       2   13    1        -0.1983836049E-01      0.3504271820E-01
          0                 4           2             4   13     1      -0.4906735339E-03       4   13    1        -0.2900959886E-01      0.5029130897E-01
          0                 5           1             2   13     1      -0.2588498365E-04       2   13    1        -0.1501984208E-02      0.2686096296E-02

    ------------------------------------------------
       NWT REQUIRED            5 OUTER ITERATIONS 
       AND A TOTAL OF          9 INNER ITERATIONS.
    ------------------------------------------------

 NO OUTPUT CONTROL FOR STRESS PERIOD   31   TIME STEP   24
 
 SOLVING FOR HEAD 
                                                   Max.-Head-Change                         Max.-Flux-Residual
  Residual-Control   Outer-Iter.   Inner-Iter.     Column Row Layer    Maximum-Head-Change  Column Row Layer    Maximum-Flux-Residual          L2-NORM 
          0                 1           2             4   13     1       0.8269459456E-02       4   13    1         0.4771982200E+00      0.9286050949E+00
          0                 2           2             4   13     1      -0.7842327485E-02       4   13    1        -0.4639133992E+00      0.8014719506E+00
          0                 3           2             2   13     1      -0.3388664594E-03       2   13    1        -0.1967000360E-01      0.3475488609E-01
          0                 4           2             4   13     1      -0.4967630726E-03       4   13    1        -0.2936959849E-01      0.5092148308E-01
          0                 5           1             2   13     1      -0.2335871679E-04       2   13    1        -0.1355429100E-02      0.2414360194E-02

    ------------------------------------------------
       NWT REQUIRED            5 OUTER ITERATIONS 
       AND A TOTAL OF          9 INNER ITERATIONS.
    ------------------------------------------------

 NO OUTPUT CONTROL FOR STRESS PERIOD   31   TIME STEP   25
 
 SOLVING FOR HEAD 
                                                   Max.-Head-Change                         Max.-Flux-Residual
  Residual-Control   Outer-Iter.   Inner-Iter.     Column Row Layer    Maximum-Head-Change  Column Row Layer    Maximum-Flux-Residual          L2-NORM 
          0                 1           2             4   13     1       0.8310428832E-02       4   13    1         0.4795568613E+00      0.9334235326E+00
          0                 2           2             4   13     1      -0.7846579256E-02       4   13    1        -0.4641647331E+00      0.8021946240E+00
          0                 3           2             2   13     1      -0.3357205159E-03       2   13    1        -0.1948733184E-01      0.3443795788E-01
          0                 4           2             4   13     1      -0.5029778231E-03       4   13    1        -0.2973700775E-01      0.5156443912E-01
          0                 5           1             2   13     1      -0.2067731145E-04       2   13    1        -0.1199882096E-02      0.2125696002E-02

    ------------------------------------------------
       NWT REQUIRED            5 OUTER ITERATIONS 
       AND A TOTAL OF          9 INNER ITERATIONS.
    ------------------------------------------------

 NO OUTPUT CONTROL FOR STRESS PERIOD   31   TIME STEP   26
 
 SOLVING FOR HEAD 
                                                   Max.-Head-Change                         Max.-Flux-Residual
  Residual-Control   Outer-Iter.   Inner-Iter.     Column Row Layer    Maximum-Head-Change  Column Row Layer    Maximum-Flux-Residual          L2-NORM 
          0                 1           2             4   13     1       0.8347550557E-02       4   13    1         0.4816938479E+00      0.9377945020E+00
          0                 2           2             4   13     1      -0.7839848464E-02       4   13    1        -0.4637682460E+00      0.8017725695E+00
          0                 3           2             2   13     1      -0.3420004969E-03       2   13    1        -0.1985163722E-01      0.3512391739E-01
          0                 4           2             4   13     1      -0.5079650611E-03       4   13    1        -0.3003185702E-01      0.5208235971E-01
          0                 5           1             2   13     1      -0.1965522230E-04       2   13    1        -0.1140572384E-02      0.2017234611E-02

    ------------------------------------------------
       NWT REQUIRED            5 OUTER ITERATIONS 
       AND A TOTAL OF          9 INNER ITERATIONS.
    ------------------------------------------------

 NO OUTPUT CONTROL FOR STRESS PERIOD   31   TIME STEP   27
 
 SOLVING FOR HEAD 
                                                   Max.-Head-Change                         Max.-Flux-Residual
  Residual-Control   Outer-Iter.   Inner-Iter.     Column Row Layer    Maximum-Head-Change  Column Row Layer    Maximum-Flux-Residual          L2-NORM 
          0                 1           2             4   13     1       0.8381140867E-02       4   13    1         0.4836270742E+00      0.9417791125E+00
          0                 2           2             4   13     1      -0.7848746321E-02       4   13    1        -0.4642935285E+00      0.8029278515E+00
          0                 3           2             2   13     1      -0.3335729822E-03       2   13    1        -0.1936249245E-01      0.3424319928E-01
          0                 4           2             4   13     1      -0.5150525335E-03       4   13    1        -0.3045085814E-01      0.5281301731E-01
          0                 5           1             2   13     1      -0.1571162052E-04       2   13    1        -0.9117589198E-03      0.1598416214E-02

    ------------------------------------------------
       NWT REQUIRED            5 OUTER ITERATIONS 
       AND A TOTAL OF          9 INNER ITERATIONS.
    ------------------------------------------------

 NO OUTPUT CONTROL FOR STRESS PERIOD   31   TIME STEP   28
 
 SOLVING FOR HEAD 
                                                   Max.-Head-Change                         Max.-Flux-Residual
  Residual-Control   Outer-Iter.   Inner-Iter.     Column Row Layer    Maximum-Head-Change  Column Row Layer    Maximum-Flux-Residual          L2-NORM 
          0                 1           2             4   13     1       0.8411566286E-02       4   13    1         0.4853775352E+00      0.9454028200E+00
          0                 2           2             4   13     1      -0.7185438557E-02       4   13    1        -0.4251596833E+00      0.7353161885E+00
          0                 3           2             4   13     1      -0.1010826875E-02       4   13    1        -0.5976793181E-01      0.1054679811E+00
          0                 4           2             4   13     1      -0.4208306845E-03       4   13    1        -0.2488047398E-01      0.4327401712E-01
          0                 5           1             4   13     1      -0.7773990176E-04       4   13    1        -0.4595722072E-02      0.8051241559E-02

    ------------------------------------------------
       NWT REQUIRED            5 OUTER ITERATIONS 
       AND A TOTAL OF          9 INNER ITERATIONS.
    ------------------------------------------------

 NO OUTPUT CONTROL FOR STRESS PERIOD   31   TIME STEP   29
 
 SOLVING FOR HEAD 
                                                   Max.-Head-Change                         Max.-Flux-Residual
  Residual-Control   Outer-Iter.   Inner-Iter.     Column Row Layer    Maximum-Head-Change  Column Row Layer    Maximum-Flux-Residual          L2-NORM 
          0                 1           2             4   13     1       0.8438911965E-02       4   13    1         0.4869503175E+00      0.9486875726E+00
          0                 2           2             4   13     1      -0.7179601345E-02       4   13    1        -0.4248153153E+00      0.7349291469E+00
          0                 3           2             4   13     1      -0.1021344218E-02       4   13    1        -0.6038999461E-01      0.1065405947E+00
          0                 4           2             4   13     1      -0.4225490396E-03       4   13    1        -0.2498201346E-01      0.4345638830E-01
          0                 5           1             4   13     1      -0.7765016811E-04       4   13    1        -0.4590405274E-02      0.8043302101E-02

    ------------------------------------------------
       NWT REQUIRED            5 OUTER ITERATIONS 
       AND A TOTAL OF          9 INNER ITERATIONS.
    ------------------------------------------------

 NO OUTPUT CONTROL FOR STRESS PERIOD   31   TIME STEP   30



 STREAM LISTING     PERIOD     31   STEP       30

 LAYER ROW COL. STREAM  RCH.  FLOW INTO     FLOW TO   FLOW OUT OF   OVRLND.     DIRECT     STREAM       STREAM     STREAM     STREAM   STREAMBED  STREAMBED
                SEG.NO.  NO.  STRM. RCH.    AQUIFER    STRM. RCH.    RUNOFF     PRECIP       ET          HEAD       DEPTH      WIDTH   CONDCTNC.   GRADIENT

   1    1    1     1     1    6.2248E+01  3.7978E-01   6.1868E+01  0.000E+00  0.000E+00  0.000E+00  1.09460E+03  1.553E+00  1.854E+01  8.342E-02  1.518E+00
   1    2    2     1     2    6.1868E+01  5.8816E-01   6.1280E+01  0.000E+00  0.000E+00  0.000E+00  1.08961E+03  1.547E+00  1.848E+01  1.294E-01  1.516E+00
   1    3    3     1     3    6.1280E+01  5.0162E-01   6.0779E+01  0.000E+00  0.000E+00  0.000E+00  1.08396E+03  1.540E+00  1.841E+01  1.105E-01  1.513E+00
   1    3    4     1     4    6.0779E+01  4.6193E-01   6.0317E+01  0.000E+00  0.000E+00  0.000E+00  1.07894E+03  1.534E+00  1.836E+01  1.019E-01  1.511E+00
   1    4    5     2     1    5.8317E+01  3.9026E-01   5.7926E+01  0.000E+00  0.000E+00  0.000E+00  1.07394E+03  2.003E+00  1.200E+01  7.800E-02  1.668E+00
   1    5    6     2     2    5.7926E+01  2.9977E-01   5.7627E+01  0.000E+00  0.000E+00  0.000E+00  1.06851E+03  1.996E+00  1.200E+01  6.000E-02  1.665E+00
   1    6    6     2     3    5.7627E+01  2.9940E-01   5.7327E+01  0.000E+00  0.000E+00  0.000E+00  1.06378E+03  1.990E+00  1.200E+01  6.000E-02  1.663E+00
   1    7    6     2     4    5.7327E+01  2.9902E-01   5.7028E+01  0.000E+00  0.000E+00  0.000E+00  1.05906E+03  1.984E+00  1.200E+01  6.000E-02  1.661E+00
   1    8    6     2     5    5.7028E+01  2.9865E-01   5.6730E+01  0.000E+00  0.000E+00  0.000E+00  1.05434E+03  1.977E+00  1.200E+01  6.000E-02  1.659E+00
   1    3    5     3     1    2.0000E+00  2.8252E-01   1.7175E+00  0.000E+00  0.000E+00  0.000E+00  1.07555E+03  1.909E+00  9.636E+00  7.227E-02  1.955E+00
   1    3    6     3     2    1.7175E+00  2.4905E-01   1.4684E+00  0.000E+00  0.000E+00  0.000E+00  1.07264E+03  1.727E+00  8.909E+00  6.682E-02  1.864E+00
   1    3    7     3     3    1.4684E+00  1.9718E-01   1.2712E+00  0.000E+00  0.000E+00  0.000E+00  1.06987E+03  1.555E+00  8.218E+00  5.547E-02  1.777E+00
   1    4    8     3     4    1.2712E+00  2.2567E-01   1.0456E+00  0.000E+00  0.000E+00  0.000E+00  1.06682E+03  1.364E+00  7.455E+00  6.709E-02  1.682E+00
   1    5    8     3     5    1.0456E+00  1.5790E-01   8.8768E-01  0.000E+00  0.000E+00  0.000E+00  1.06362E+03  1.164E+00  6.655E+00  4.991E-02  1.582E+00
   1    6    8     3     6    8.8768E-01  5.5980E-02   8.3170E-01  0.000E+00  0.000E+00  0.000E+00  1.06158E+03  1.036E+00  6.145E+00  1.844E-02  1.518E+00
   1    5   10     4     1    1.0000E+01  9.0919E-02   9.9091E+00  0.000E+00  0.000E+00  0.000E+00  1.07836E+03  6.368E-01  1.000E+01  2.500E-02  1.212E+00
   1    5    9     4     2    9.9091E+00  1.8158E-01   9.7275E+00  0.000E+00  0.000E+00  0.000E+00  1.07154E+03  6.315E-01  1.000E+01  5.000E-02  1.211E+00
   1    6    8     4     3    9.7275E+00  1.2689E-01   9.6006E+00  0.000E+00  0.000E+00  0.000E+00  1.06381E+03  6.256E-01  1.000E+01  3.500E-02  1.209E+00
   1    6    8     5     1    1.0432E+01  2.2686E-01   1.0205E+01  0.000E+00  0.000E+00  0.000E+00  1.05868E+03  6.790E-01  1.542E+01  6.166E-02  1.226E+00
   1    7    7     5     2    1.0205E+01  2.7894E-01   9.9265E+00  0.000E+00  0.000E+00  0.000E+00  1.05417E+03  6.732E-01  1.519E+01  7.594E-02  1.224E+00
   1    8    7     5     3    9.9265E+00  1.9221E-01   9.7343E+00  0.000E+00  0.000E+00  0.000E+00  1.04992E+03  6.676E-01  1.497E+01  5.241E-02  1.223E+00
   1    8    6     5     4    9.7343E+00  1.3577E-01   9.5985E+00  0.000E+00  0.000E+00  0.000E+00  1.04691E+03  6.637E-01  1.482E+01  3.706E-02  1.221E+00
   1    9    6     6     1    4.4019E+01  2.8268E-01   4.3736E+01  0.000E+00  0.000E+00  0.000E+00  1.04444E+03  1.711E+00  1.200E+01  6.000E-02  1.570E+00
   1   10    7     6     2    4.3736E+01  2.8228E-01   4.3454E+01  0.000E+00  0.000E+00  0.000E+00  1.03989E+03  1.705E+00  1.200E+01  6.000E-02  1.568E+00
   1   11    7     6     3    4.3454E+01  2.8188E-01   4.3172E+01  0.000E+00  0.000E+00  0.000E+00  1.03533E+03  1.698E+00  1.200E+01  6.000E-02  1.566E+00
   1   12    7     6     4    4.3172E+01  2.8148E-01   4.2891E+01  0.000E+00  0.000E+00  0.000E+00  1.03078E+03  1.691E+00  1.200E+01  6.000E-02  1.564E+00
   1   13    7     6     5    4.2891E+01  1.1760E-02   4.2879E+01  0.000E+00  0.000E+00  0.000E+00  1.02760E+03  1.688E+00  1.200E+01  2.400E-02  1.633E-01
   1   14    9     7     1    1.5000E+02  1.3391E+00   1.4866E+02  0.000E+00  0.000E+00  0.000E+00  1.03987E+03  2.288E+00  5.529E+01  5.593E-01  7.981E-01
   1   13    8     7     2    1.4866E+02  1.8321E+00   1.4683E+02  0.000E+00  0.000E+00  0.000E+00  1.03478E+03  2.279E+00  5.526E+01  6.148E-01  9.934E-01
   1   13    7     7     3    1.4683E+02  1.4424E+00   1.4539E+02  0.000E+00  0.000E+00  0.000E+00  1.02969E+03  2.271E+00  5.522E+01  5.585E-01  8.610E-01
   1   13    6     8     1    1.8827E+02  9.6148E-01   1.8730E+02  0.000E+00  0.000E+00  0.000E+00  1.02494E+03  3.064E+00  4.443E+01  4.528E-01  7.078E-01
   1   13    5     8     2    1.8730E+02  1.8235E-01   1.8712E+02  0.000E+00  0.000E+00  0.000E+00  1.01869E+03  3.061E+00  4.438E+01  4.523E-01  1.344E-01
   1   13    4     8     3    1.8712E+02 -2.4681E+00   1.8959E+02  0.000E+00  0.000E+00  0.000E+00  1.01244E+03  3.068E+00  4.448E+01  4.533E+00 -1.815E-01
   1   13    3     8     4    1.8959E+02 -3.6272E+00   1.9322E+02  0.000E+00  0.000E+00  0.000E+00  1.00621E+03  3.086E+00  4.475E+01  4.561E+00 -2.651E-01
   1   13    2     8     5    1.9322E+02 -2.5976E+00   1.9581E+02  0.000E+00  0.000E+00  0.000E+00  9.99980E+02  3.105E+00  4.503E+01  4.588E+00 -1.887E-01
   1   13    1     8     6    1.9581E+02 -2.0237E+00   1.9784E+02  0.000E+00  0.000E+00  0.000E+00  9.94994E+02  3.119E+00  4.522E+01  2.765E+00 -2.439E-01
   1    8    6     9     1    2.2309E+01  0.0000E+00   2.2309E+01  0.000E+00  0.000E+00  0.000E+00  1.08242E+03  3.667E+00  4.000E+00  0.000E+00  2.222E+00
   1    8    5     9     2    2.2309E+01  0.0000E+00   2.2309E+01  0.000E+00  0.000E+00  0.000E+00  1.08192E+03  3.667E+00  4.000E+00  0.000E+00  2.222E+00





UNSATURATED ZONE PACKAGE VOLUMETRIC BUDGET FOR  TIME STEP    30 STRESS PERIOD   31
  ------------------------------------------------------------------------------



     CUMULATIVE VOLUMES      L**3       RATES FOR THIS TIME STEP      L**3/T
     ------------------                 ------------------------

           IN:                                      IN:
           ---                                      ---
        INFILTRATION =  1226376874.6379          INFILTRATION =          26.7170

          OUT:                                     OUT:
          ----                                     ----
              UZF ET =  1130376788.2622                UZF ET =          26.6075
        UZF RECHARGE =     1188452.4670          UZF RECHARGE =       0.0000E+00

            IN - OUT =    94811633.9087              IN - OUT =           0.1095

          STORAGE:                                 STORAGE:
          --------                                 --------
      STORAGE CHANGE =    94812602.9783        STORAGE CHANGE =           0.1095

 PERCENT DISCREPANCY IS DIFFERENCE BETWEEN IN-OUT MINUS CHANGE IN STORAGE
 DIVIDED BY THE AVERAGE OF IN AND OUT TIMES 100

 PERCENT DISCREPANCY =          -0.00     PERCENT DISCREPANCY =           0.00






1
  VOLUMETRIC BUDGET FOR ENTIRE MODEL AT END OF TIME STEP   30, STRESS PERIOD  31
  ------------------------------------------------------------------------------

     CUMULATIVE VOLUMES      L**3       RATES FOR THIS TIME STEP      L**3/T
     ------------------                 ------------------------

           IN:                                      IN:
           ---                                      ---
               AG WELLS  =   176029504.0000                 AG WELLS  =           0.0000
      DIVERSION SEGMENTS =   702508992.0000        DIVERSION SEGMENTS =          22.3090
           GW IRRIGATION =           0.0000             GW IRRIGATION =           0.0000
           SW IRRIGATION =           0.0000             SW IRRIGATION =           0.0000
        SYSTEM LOSSES GW =           0.0000          SYSTEM LOSSES GW =           0.0000
        SYSTEM LOSSES SW =           0.0000          SYSTEM LOSSES SW =           0.0000

                TOTAL IN =   878538496.0000                  TOTAL IN =          22.3090

          OUT:                                     OUT:
          ----                                     ----
               AG WELLS  =           0.0000                 AG WELLS  =           0.0000
      DIVERSION SEGMENTS =           0.0000        DIVERSION SEGMENTS =           0.0000
           GW IRRIGATION =   176029504.0000             GW IRRIGATION =           0.0000
           SW IRRIGATION =   702524224.0000             SW IRRIGATION =          22.3095
        SYSTEM LOSSES GW =           0.0000          SYSTEM LOSSES GW =           0.0000
        SYSTEM LOSSES SW =           0.0000          SYSTEM LOSSES SW =           0.0000

               TOTAL OUT =   878553728.0000                 TOTAL OUT =          22.3095

                IN - OUT =      -15232.0000                  IN - OUT =      -4.4632E-04

     PERCENT DISCREPANCY =          -0.00         PERCENT DISCREPANCY =          -0.00



1
  VOLUMETRIC BUDGET FOR ENTIRE MODEL AT END OF TIME STEP   30, STRESS PERIOD  31
  ------------------------------------------------------------------------------

     CUMULATIVE VOLUMES      L**3       RATES FOR THIS TIME STEP      L**3/T
     ------------------                 ------------------------

           IN:                                      IN:
           ---                                      ---
             STORAGE     =   309796288.0000               STORAGE     =           0.6878
       CONSTANT HEAD     =           0.0000         CONSTANT HEAD     =           0.0000
     HEAD DEP BOUNDS     =    22574854.0000       HEAD DEP BOUNDS     =           0.2860
      STREAM LEAKAGE     =   943421824.0000        STREAM LEAKAGE     =          12.8176
        UZF RECHARGE     =     1188452.5000          UZF RECHARGE     =           0.0000
               GW ET     =           0.0000                 GW ET     =           0.0000
     SURFACE LEAKAGE     =           0.0000       SURFACE LEAKAGE     =           0.0000
           AG WELLS      =           0.0000             AG WELLS      =           0.0000

                TOTAL IN =  1276981376.0000                  TOTAL IN =          13.7913

          OUT:                                     OUT:
          ----                                     ----
             STORAGE     =   221482032.0000               STORAGE     =           2.7296
       CONSTANT HEAD     =           0.0000         CONSTANT HEAD     =           0.0000
     HEAD DEP BOUNDS     =    22976646.0000       HEAD DEP BOUNDS     =           0.2936
      STREAM LEAKAGE     =   853235840.0000        STREAM LEAKAGE     =          10.7166
        UZF RECHARGE     =           0.0000          UZF RECHARGE     =           0.0000
               GW ET     =     3265349.0000                 GW ET     =       5.0283E-02
     SURFACE LEAKAGE     =           0.0000       SURFACE LEAKAGE     =           0.0000
           AG WELLS      =   176029504.0000             AG WELLS      =           0.0000

               TOTAL OUT =  1276989440.0000                 TOTAL OUT =          13.7900

                IN - OUT =       -8064.0000                  IN - OUT =       1.2903E-03

     PERCENT DISCREPANCY =          -0.00         PERCENT DISCREPANCY =           0.01






         TIME SUMMARY AT END OF TIME STEP   30 IN STRESS PERIOD   31
                    SECONDS     MINUTES      HOURS       DAYS        YEARS
                    -----------------------------------------------------------
   TIME STEP LENGTH  87667.      1461.1      24.352      1.0147     2.77799E-03
 STRESS PERIOD TIME 2.63000E+06  43833.      730.56      30.440     8.33397E-02
         TOTAL TIME 7.89864E+07 1.31644E+06  21941.      914.20      2.5029    
1
1
                            STRESS PERIOD NO.   32, LENGTH =   2630000.    
                            -----------------------------------------------

                              NUMBER OF TIME STEPS =    30

                               MULTIPLIER FOR DELT =     1.000

                            INITIAL TIME STEP SIZE =   87666.66    

 REUSING NON-PARAMETER GHB CELLS FROM LAST STRESS PERIOD

      2 GHB CELLS

 REUSING STREAM SEGMENT DATA FROM LAST STRESS PERIOD



            AREAL INFILTRATION RATE
 READING ON UNIT   19 WITH FORMAT: (10F4.0)            

            1           2           3           4           5           6           7           8           9          10
 ........................................................................................................................
   1   1.2000E-09   0.000       0.000       0.000       0.000       0.000       0.000       0.000       0.000       0.000    
   2   2.1000E-09  2.0000E-09  8.0000E-10  8.5000E-09   0.000       0.000       0.000       0.000       0.000       0.000    
   3   5.0000E-10  1.1000E-09  8.8000E-09  5.5000E-09   0.000       0.000       0.000       0.000       0.000       0.000    
   4   8.5000E-09  1.1000E-09  1.1000E-09  1.1000E-09  2.0000E-09   0.000       0.000       0.000       0.000       0.000    
   5   8.5000E-09  1.1000E-09  1.1000E-09  1.1000E-09  1.1000E-09   0.000       0.000       0.000       0.000       0.000    
   6   8.5000E-09  5.2000E-09  2.1000E-09  1.1000E-09  1.5000E-09   0.000       0.000       0.000       0.000       0.000    
   7   8.5000E-09  5.2000E-09  2.1000E-09  1.2000E-09  2.0000E-09   0.000       0.000       0.000       0.000       0.000    
   8   5.0000E-10  5.2000E-09  2.1000E-09  1.2000E-09  5.0000E-09   0.000       0.000       0.000       0.000       0.000    
   9   5.0000E-10  5.2000E-09  2.1000E-09  1.2000E-09  5.0000E-09   0.000       0.000       0.000       0.000       0.000    
  10   5.0000E-10  5.2000E-09  2.1000E-09  1.2000E-09  5.8000E-09   0.000       0.000       0.000       0.000       0.000    
  11   1.0000E-10  1.1000E-09  1.1000E-09  1.2000E-09  5.0000E-09   0.000       0.000       0.000       0.000       0.000    
  12   1.1000E-09  1.1000E-09  1.1000E-09  1.1000E-09  2.0000E-09   0.000       0.000       0.000       0.000       0.000    
  13   1.1000E-09  2.2000E-09  2.2000E-09  2.1000E-09  1.0000E-09   0.000       0.000       0.000       0.000       0.000    
  14   2.0000E-10  5.5000E-09  5.5000E-09  5.2000E-09  1.0000E-09   0.000       0.000       0.000       0.000       0.000    
  15    0.000      8.8000E-09  8.8000E-09   0.000       0.000       0.000       0.000       0.000       0.000       0.000    

                  ET RATE =  4.000000E-07

 USING ET EXTINCTION DEPTH FROM PREVIOUS STRESS PERIOD. CURRENT PERIOD IS:      32

 USING EXTINCTION WATER CONTENT FROM PREVIOUS STRESS PERIOD. CURRENT PERIOD IS:      32

 USING AIR ENTRY PRESSURE FROM PREVIOUS STRESS PERIOD. CURRENT PERIOD IS:      32

 USING ROOT PRESSURE HEAD FROM PREVIOUS STRESS PERIOD. CURRENT PERIOD IS:      32

 USING ROOT ACTIVITY FROM PREVIOUS STRESS PERIOD. CURRENT PERIOD IS:      32

 PROCESSING AG STRESS PERIOD DATA

 READING AG STRESS PERIOD DATA

 READING IRRIGATION SEGMENT

 READING IRRIGATION WELL

 READING SUPPLEMENTAL WELL

 END PROCESSING AG STRESS PERIOD DATA OPTIONS
 
 SOLVING FOR HEAD 
                                                   Max.-Head-Change                         Max.-Flux-Residual
  Residual-Control   Outer-Iter.   Inner-Iter.     Column Row Layer    Maximum-Head-Change  Column Row Layer    Maximum-Flux-Residual          L2-NORM 
          0                 1           2             4   13     1       0.6493576195E-02       4   13    1         0.3755788952E+00      0.7400209668E+00
          0                 2           2             4   13     1      -0.1932373186E-01       4   13    1        -0.1138321055E+01      0.2130232269E+01
          0                 3           2             4    7     1      -0.7818637329E-02       5    8    1        -0.4200454086E+00      0.1038376805E+01
          0                 4           2             4    7     1      -0.3918298116E-02       4    7    1        -0.2104369272E+00      0.5155255259E+00
          0                 5           2             4    7     1      -0.4189389328E-02       5    8    1        -0.2249947978E+00      0.5511218218E+00
          0                 6           2             4    7     1       0.2854038404E-03       5    6    1         0.1575637904E-01      0.3859501797E-01
          0                 7           1             4    7     1      -0.1136456611E-04       5    6    1        -0.6448953395E-03      0.1579661835E-02

    ------------------------------------------------
       NWT REQUIRED            7 OUTER ITERATIONS 
       AND A TOTAL OF         13 INNER ITERATIONS.
    ------------------------------------------------

 NO OUTPUT CONTROL FOR STRESS PERIOD   32   TIME STEP    1
 
 SOLVING FOR HEAD 
                                                   Max.-Head-Change                         Max.-Flux-Residual
  Residual-Control   Outer-Iter.   Inner-Iter.     Column Row Layer    Maximum-Head-Change  Column Row Layer    Maximum-Flux-Residual          L2-NORM 
          0                 1           2             4    7     1      -0.2528912296E-01       4    7    1        -0.1321849830E+01      0.3325740216E+01
          0                 2           2             4   13     1      -0.1953835348E-01       4   13    1        -0.1150039629E+01      0.2075839304E+01
          0                 3           2             3   13     1      -0.2045855454E-02       3   13    1        -0.1222826720E+00      0.2412201668E+00
          0                 4           2             3   13     1       0.1393332984E-03       3   13    1         0.8519290226E-02      0.1333770875E-01
          0                 5           1             3   13     1      -0.5489358014E-05       3   13    1        -0.3434192149E-03      0.4592672270E-03

    ------------------------------------------------
       NWT REQUIRED            5 OUTER ITERATIONS 
       AND A TOTAL OF          9 INNER ITERATIONS.
    ------------------------------------------------

 NO OUTPUT CONTROL FOR STRESS PERIOD   32   TIME STEP    2
 
 SOLVING FOR HEAD 
                                                   Max.-Head-Change                         Max.-Flux-Residual
  Residual-Control   Outer-Iter.   Inner-Iter.     Column Row Layer    Maximum-Head-Change  Column Row Layer    Maximum-Flux-Residual          L2-NORM 
          0                 1           2             4    7     1      -0.2511508071E-01       4    7    1        -0.1313384448E+01      0.3282101570E+01
          0                 2           2             4   13     1      -0.1975472353E-01       4   13    1        -0.1161033973E+01      0.2045983030E+01
          0                 3           2             7   13     1      -0.1793140351E-02       7   13    1        -0.1001026941E+00      0.2199625429E+00
          0                 4           2             7   13     1       0.1220490593E-03       7   13    1         0.6997836029E-02      0.1049485609E-01
          0                 5           1             7   13     1      -0.4853138102E-05       7   13    1        -0.2857641125E-03      0.3007947373E-03

    ------------------------------------------------
       NWT REQUIRED            5 OUTER ITERATIONS 
       AND A TOTAL OF          9 INNER ITERATIONS.
    ------------------------------------------------

 NO OUTPUT CONTROL FOR STRESS PERIOD   32   TIME STEP    3
 
 SOLVING FOR HEAD 
                                                   Max.-Head-Change                         Max.-Flux-Residual
  Residual-Control   Outer-Iter.   Inner-Iter.     Column Row Layer    Maximum-Head-Change  Column Row Layer    Maximum-Flux-Residual          L2-NORM 
          0                 1           2             4    7     1      -0.2493659567E-01       4    7    1        -0.1304623061E+01      0.3244136106E+01
          0                 2           2             4   13     1      -0.1992362260E-01       4   13    1        -0.1170998422E+01      0.2059836854E+01
          0                 3           2             7   13     1      -0.1783227725E-02       7   13    1        -0.9955081069E-01      0.2201293349E+00
          0                 4           2             7   13     1       0.1213761334E-03       7   13    1         0.6959308520E-02      0.1048106783E-01
          0                 5           1             7   13     1      -0.4825738860E-05       7   13    1        -0.2841541250E-03      0.2996886420E-03

    ------------------------------------------------
       NWT REQUIRED            5 OUTER ITERATIONS 
       AND A TOTAL OF          9 INNER ITERATIONS.
    ------------------------------------------------

 NO OUTPUT CONTROL FOR STRESS PERIOD   32   TIME STEP    4
 
 SOLVING FOR HEAD 
                                                   Max.-Head-Change                         Max.-Flux-Residual
  Residual-Control   Outer-Iter.   Inner-Iter.     Column Row Layer    Maximum-Head-Change  Column Row Layer    Maximum-Flux-Residual          L2-NORM 
          0                 1           2             4    7     1      -0.2474916168E-01       4    7    1        -0.1295349894E+01      0.3210556961E+01
          0                 2           2             4   13     1      -0.2007685106E-01       4   13    1        -0.1180035612E+01      0.2072620734E+01
          0                 3           2             7   13     1      -0.1773572422E-02       7   13    1        -0.9901330857E-01      0.2202427643E+00
          0                 4           2             7   13     1       0.1207171619E-03       7   13    1         0.6921559819E-02      0.1046629208E-01
          0                 5           1             7   13     1      -0.4799828462E-05       7   13    1        -0.2826227837E-03      0.2977631331E-03

    ------------------------------------------------
       NWT REQUIRED            5 OUTER ITERATIONS 
       AND A TOTAL OF          9 INNER ITERATIONS.
    ------------------------------------------------

 NO OUTPUT CONTROL FOR STRESS PERIOD   32   TIME STEP    5
 
 SOLVING FOR HEAD 
                                                   Max.-Head-Change                         Max.-Flux-Residual
  Residual-Control   Outer-Iter.   Inner-Iter.     Column Row Layer    Maximum-Head-Change  Column Row Layer    Maximum-Flux-Residual          L2-NORM 
          0                 1           2             4    7     1      -0.2455375079E-01       4    7    1        -0.1285615845E+01      0.3180457355E+01
          0                 2           2             4   13     1      -0.2021590211E-01       4   13    1        -0.1188234161E+01      0.2084422981E+01
          0                 3           2             7   13     1      -0.1764170205E-02       7   13    1        -0.9848983847E-01      0.2203456607E+00
          0                 4           2             7   13     1       0.1200772492E-03       7   13    1         0.6884922178E-02      0.1045271397E-01
          0                 5           1             7   13     1      -0.4772061038E-05       7   13    1        -0.2809904258E-03      0.2962665158E-03

    ------------------------------------------------
       NWT REQUIRED            5 OUTER ITERATIONS 
       AND A TOTAL OF          9 INNER ITERATIONS.
    ------------------------------------------------

 NO OUTPUT CONTROL FOR STRESS PERIOD   32   TIME STEP    6
 
 SOLVING FOR HEAD 
                                                   Max.-Head-Change                         Max.-Flux-Residual
  Residual-Control   Outer-Iter.   Inner-Iter.     Column Row Layer    Maximum-Head-Change  Column Row Layer    Maximum-Flux-Residual          L2-NORM 
          0                 1           2             4    7     1      -0.2435095766E-01       4    7    1        -0.1275453338E+01      0.3153330835E+01
          0                 2           2             4   13     1      -0.2034220390E-01       4   13    1        -0.1195678663E+01      0.2095321598E+01
          0                 3           2             7   13     1      -0.1755008778E-02       7   13    1        -0.9797977476E-01      0.2204198625E+00
          0                 4           2             7   13     1       0.1194544443E-03       7   13    1         0.6849264506E-02      0.1043557422E-01
          0                 5           1             7   13     1      -0.4750404184E-05       7   13    1        -0.2797142793E-03      0.2950007219E-03

    ------------------------------------------------
       NWT REQUIRED            5 OUTER ITERATIONS 
       AND A TOTAL OF          9 INNER ITERATIONS.
    ------------------------------------------------

 NO OUTPUT CONTROL FOR STRESS PERIOD   32   TIME STEP    7
 
 SOLVING FOR HEAD 
                                                   Max.-Head-Change                         Max.-Flux-Residual
  Residual-Control   Outer-Iter.   Inner-Iter.     Column Row Layer    Maximum-Head-Change  Column Row Layer    Maximum-Flux-Residual          L2-NORM 
          0                 1           2             4    7     1      -0.2415693520E-01       4    7    1        -0.1265025590E+01      0.3128735273E+01
          0                 2           2             4   13     1      -0.2045700360E-01       4   13    1        -0.1202443127E+01      0.2105407785E+01
          0                 3           2             7   13     1      -0.1746078913E-02       7   13    1        -0.9748260327E-01      0.2204800086E+00
          0                 4           2             7   13     1       0.1188454501E-03       7   13    1         0.6814398716E-02      0.1042082494E-01
          0                 5           1             7   13     1      -0.4724544673E-05       7   13    1        -0.2781923858E-03      0.2938856321E-03

    ------------------------------------------------
       NWT REQUIRED            5 OUTER ITERATIONS 
       AND A TOTAL OF          9 INNER ITERATIONS.
    ------------------------------------------------

 NO OUTPUT CONTROL FOR STRESS PERIOD   32   TIME STEP    8
 
 SOLVING FOR HEAD 
                                                   Max.-Head-Change                         Max.-Flux-Residual
  Residual-Control   Outer-Iter.   Inner-Iter.     Column Row Layer    Maximum-Head-Change  Column Row Layer    Maximum-Flux-Residual          L2-NORM 
          0                 1           2             4    7     1      -0.2395469965E-01       4    7    1        -0.1254864794E+01      0.3106501006E+01
          0                 2           2             4   13     1      -0.2056124991E-01       4   13    1        -0.1208583742E+01      0.2114720820E+01
          0                 3           2             7   13     1      -0.1737379702E-02       7   13    1        -0.9699827480E-01      0.2205200441E+00
          0                 4           2             7   13     1       0.1182533491E-03       7   13    1         0.6780498146E-02      0.1040576848E-01
          0                 5           1             4   13     1       0.6070082016E-04       4   13    1         0.3915206461E-02      0.3926386295E-02

    ------------------------------------------------
       NWT REQUIRED            5 OUTER ITERATIONS 
       AND A TOTAL OF          9 INNER ITERATIONS.
    ------------------------------------------------

 NO OUTPUT CONTROL FOR STRESS PERIOD   32   TIME STEP    9
 
 SOLVING FOR HEAD 
                                                   Max.-Head-Change                         Max.-Flux-Residual
  Residual-Control   Outer-Iter.   Inner-Iter.     Column Row Layer    Maximum-Head-Change  Column Row Layer    Maximum-Flux-Residual          L2-NORM 
          0                 1           2             4    7     1      -0.2374665883E-01       4    7    1        -0.1244363241E+01      0.3085929106E+01
          0                 2           2             4   13     1      -0.2065505535E-01       4   13    1        -0.1214106877E+01      0.2123302347E+01
          0                 3           2             7   13     1      -0.1728898503E-02       7   13    1        -0.9652608472E-01      0.2205417526E+00
          0                 4           2             7   13     1       0.1176774824E-03       7   13    1         0.6747526661E-02      0.1039000507E-01
          0                 5           1             7   13     1      -0.4679107302E-05       7   13    1        -0.2755161859E-03      0.2911016788E-03

    ------------------------------------------------
       NWT REQUIRED            5 OUTER ITERATIONS 
       AND A TOTAL OF          9 INNER ITERATIONS.
    ------------------------------------------------

 NO OUTPUT CONTROL FOR STRESS PERIOD   32   TIME STEP   10
 
 SOLVING FOR HEAD 
                                                   Max.-Head-Change                         Max.-Flux-Residual
  Residual-Control   Outer-Iter.   Inner-Iter.     Column Row Layer    Maximum-Head-Change  Column Row Layer    Maximum-Flux-Residual          L2-NORM 
          0                 1           2             4    7     1      -0.2353327746E-01       4    7    1        -0.1233547087E+01      0.3066929917E+01
          0                 2           2             4   13     1      -0.2074157272E-01       4   13    1        -0.1219200004E+01      0.2131269896E+01
          0                 3           2             7   13     1      -0.1720628536E-02       7   13    1        -0.9606565509E-01      0.2205495216E+00
          0                 4           2             7   13     1       0.1171147460E-03       7   13    1         0.6715307704E-02      0.1037390305E-01
          0                 5           1             7   13     1      -0.4656623363E-05       7   13    1        -0.2741947324E-03      0.2897914616E-03

    ------------------------------------------------
       NWT REQUIRED            5 OUTER ITERATIONS 
       AND A TOTAL OF          9 INNER ITERATIONS.
    ------------------------------------------------

 NO OUTPUT CONTROL FOR STRESS PERIOD   32   TIME STEP   11
 
 SOLVING FOR HEAD 
                                                   Max.-Head-Change                         Max.-Flux-Residual
  Residual-Control   Outer-Iter.   Inner-Iter.     Column Row Layer    Maximum-Head-Change  Column Row Layer    Maximum-Flux-Residual          L2-NORM 
          0                 1           2             4    7     1      -0.2331522249E-01       4    7    1        -0.1222452722E+01      0.3049190750E+01
          0                 2           2             4   13     1      -0.2082035199E-01       4   13    1        -0.1223836058E+01      0.2138639211E+01
          0                 3           2             7   13     1      -0.1712564413E-02       7   13    1        -0.9561668528E-01      0.2205430177E+00
          0                 4           2             7   13     1       0.1165653382E-03       7   13    1         0.6683853875E-02      0.1035929347E-01
          0                 5           1             7   13     1      -0.4633757197E-05       7   13    1        -0.2728467443E-03      0.2887983025E-03

    ------------------------------------------------
       NWT REQUIRED            5 OUTER ITERATIONS 
       AND A TOTAL OF          9 INNER ITERATIONS.
    ------------------------------------------------

 NO OUTPUT CONTROL FOR STRESS PERIOD   32   TIME STEP   12
 
 SOLVING FOR HEAD 
                                                   Max.-Head-Change                         Max.-Flux-Residual
  Residual-Control   Outer-Iter.   Inner-Iter.     Column Row Layer    Maximum-Head-Change  Column Row Layer    Maximum-Flux-Residual          L2-NORM 
          0                 1           2             4    7     1      -0.2309341661E-01       4    7    1        -0.1211131667E+01      0.3032519361E+01
          0                 2           2             4   13     1      -0.2089217156E-01       4   13    1        -0.1228061150E+01      0.2145459168E+01
          0                 3           2             7   13     1      -0.1704697593E-02       7   13    1        -0.9517870852E-01      0.2204958993E+00
          0                 4           2             7   13     1       0.1160299151E-03       7   13    1         0.6653200070E-02      0.1034227075E-01
          0                 5           1             7   13     1      -0.4613155613E-05       7   13    1        -0.2716341960E-03      0.2876606709E-03

    ------------------------------------------------
       NWT REQUIRED            5 OUTER ITERATIONS 
       AND A TOTAL OF          9 INNER ITERATIONS.
    ------------------------------------------------

 NO OUTPUT CONTROL FOR STRESS PERIOD   32   TIME STEP   13
 
 SOLVING FOR HEAD 
                                                   Max.-Head-Change                         Max.-Flux-Residual
  Residual-Control   Outer-Iter.   Inner-Iter.     Column Row Layer    Maximum-Head-Change  Column Row Layer    Maximum-Flux-Residual          L2-NORM 
          0                 1           2             4    7     1      -0.2286816030E-01       4    7    1        -0.1199601351E+01      0.3016744137E+01
          0                 2           2             4   13     1      -0.2095767231E-01       4   13    1        -0.1231913215E+01      0.2151753321E+01
          0                 3           2             7   13     1      -0.1697024376E-02       7   13    1        -0.9475150878E-01      0.2204635643E+00
          0                 4           2             7   13     1       0.1155082282E-03       7   13    1         0.6623332532E-02      0.1032750598E-01
          0                 5           1             7   13     1      -0.4591956050E-05       7   13    1        -0.2703860114E-03      0.2863257077E-03

    ------------------------------------------------
       NWT REQUIRED            5 OUTER ITERATIONS 
       AND A TOTAL OF          9 INNER ITERATIONS.
    ------------------------------------------------

 NO OUTPUT CONTROL FOR STRESS PERIOD   32   TIME STEP   14
 
 SOLVING FOR HEAD 
                                                   Max.-Head-Change                         Max.-Flux-Residual
  Residual-Control   Outer-Iter.   Inner-Iter.     Column Row Layer    Maximum-Head-Change  Column Row Layer    Maximum-Flux-Residual          L2-NORM 
          0                 1           2             4    7     1      -0.2264062031E-01       4    7    1        -0.1187911976E+01      0.3001874706E+01
          0                 2           2             4   13     1      -0.2101745246E-01       4   13    1        -0.1235427663E+01      0.2157618702E+01
          0                 3           2             7   13     1      -0.1689533043E-02       7   13    1        -0.9433443375E-01      0.2204370704E+00
          0                 4           2             7   13     1       0.1149973585E-03       7   13    1         0.6594082456E-02      0.1031204385E-01
          0                 5           1             7   13     1      -0.4572596473E-05       7   13    1        -0.2692379144E-03      0.2850422544E-03

    ------------------------------------------------
       NWT REQUIRED            5 OUTER ITERATIONS 
       AND A TOTAL OF          9 INNER ITERATIONS.
    ------------------------------------------------

 NO OUTPUT CONTROL FOR STRESS PERIOD   32   TIME STEP   15
 
 SOLVING FOR HEAD 
                                                   Max.-Head-Change                         Max.-Flux-Residual
  Residual-Control   Outer-Iter.   Inner-Iter.     Column Row Layer    Maximum-Head-Change  Column Row Layer    Maximum-Flux-Residual          L2-NORM 
          0                 1           2             4    7     1      -0.2241071667E-01       4    7    1        -0.1176079420E+01      0.2987715841E+01
          0                 2           2             4   13     1      -0.2107206855E-01       4   13    1        -0.1238637435E+01      0.2163035231E+01
          0                 3           2             7   13     1      -0.1682224010E-02       7   13    1        -0.9392751085E-01      0.2203888501E+00
          0                 4           2             7   13     1       0.1144988472E-03       7   13    1         0.6565543271E-02      0.1029761332E-01
          0                 5           1             7   13     1      -0.4552378267E-05       7   13    1        -0.2680561533E-03      0.2838844279E-03

    ------------------------------------------------
       NWT REQUIRED            5 OUTER ITERATIONS 
       AND A TOTAL OF          9 INNER ITERATIONS.
    ------------------------------------------------

 NO OUTPUT CONTROL FOR STRESS PERIOD   32   TIME STEP   16
 
 SOLVING FOR HEAD 
                                                   Max.-Head-Change                         Max.-Flux-Residual
  Residual-Control   Outer-Iter.   Inner-Iter.     Column Row Layer    Maximum-Head-Change  Column Row Layer    Maximum-Flux-Residual          L2-NORM 
          0                 1           2             4    7     1      -0.2217898333E-01       4    7    1        -0.1164128400E+01      0.2974107616E+01
          0                 2           2             4   13     1      -0.2112195334E-01       4   13    1        -0.1241568122E+01      0.2168052678E+01
          0                 3           2             7   13     1      -0.1675089999E-02       7   13    1        -0.9353033653E-01      0.2203448935E+00
          0                 4           2             7   13     1       0.1140157455E-03       7   13    1         0.6537885011E-02      0.1028308392E-01
          0                 5           1             7   13     1      -0.4534565789E-05       7   13    1        -0.2670079712E-03      0.2832975834E-03

    ------------------------------------------------
       NWT REQUIRED            5 OUTER ITERATIONS 
       AND A TOTAL OF          9 INNER ITERATIONS.
    ------------------------------------------------

 NO OUTPUT CONTROL FOR STRESS PERIOD   32   TIME STEP   17
 
 SOLVING FOR HEAD 
                                                   Max.-Head-Change                         Max.-Flux-Residual
  Residual-Control   Outer-Iter.   Inner-Iter.     Column Row Layer    Maximum-Head-Change  Column Row Layer    Maximum-Flux-Residual          L2-NORM 
          0                 1           2             4    7     1      -0.2194586257E-01       4    7    1        -0.1152083293E+01      0.2960981673E+01
          0                 2           2             4   13     1      -0.2116762935E-01       4   13    1        -0.1244250633E+01      0.2172707190E+01
          0                 3           2             7   13     1      -0.1668121296E-02       7   13    1        -0.9314236496E-01      0.2202647121E+00
          0                 4           2             7   13     1       0.1135397566E-03       7   13    1         0.6510636179E-02      0.1026777355E-01
          0                 5           1             7   13     1      -0.4513671547E-05       7   13    1        -0.2657774694E-03      0.2819014533E-03

    ------------------------------------------------
       NWT REQUIRED            5 OUTER ITERATIONS 
       AND A TOTAL OF          9 INNER ITERATIONS.
    ------------------------------------------------

 NO OUTPUT CONTROL FOR STRESS PERIOD   32   TIME STEP   18
 
 SOLVING FOR HEAD 
                                                   Max.-Head-Change                         Max.-Flux-Residual
  Residual-Control   Outer-Iter.   Inner-Iter.     Column Row Layer    Maximum-Head-Change  Column Row Layer    Maximum-Flux-Residual          L2-NORM 
          0                 1           2             4    7     1      -0.2171202768E-01       4    7    1        -0.1139981531E+01      0.2948280017E+01
          0                 2           2             4   13     1      -0.2120940324E-01       4   13    1        -0.1246703080E+01      0.2177022284E+01
          0                 3           2             7   13     1      -0.1661316267E-02       7   13    1        -0.9276350638E-01      0.2201880636E+00
          0                 4           2             7   13     1       0.1130765725E-03       7   13    1         0.6484117340E-02      0.1025269127E-01
          0                 5           1             7   13     1      -0.4496259027E-05       7   13    1        -0.2647512133E-03      0.2809693587E-03

    ------------------------------------------------
       NWT REQUIRED            5 OUTER ITERATIONS 
       AND A TOTAL OF          9 INNER ITERATIONS.
    ------------------------------------------------

 NO OUTPUT CONTROL FOR STRESS PERIOD   32   TIME STEP   19
 
 SOLVING FOR HEAD 
                                                   Max.-Head-Change                         Max.-Flux-Residual
  Residual-Control   Outer-Iter.   Inner-Iter.     Column Row Layer    Maximum-Head-Change  Column Row Layer    Maximum-Flux-Residual          L2-NORM 
          0                 1           2             4    7     1      -0.2147752149E-01       4    7    1        -0.1127826243E+01      0.2935935805E+01
          0                 2           2             4   13     1      -0.2124771631E-01       4   13    1        -0.1248951593E+01      0.2181026414E+01
          0                 3           2             7   13     1      -0.1654671736E-02       7   13    1        -0.9239358395E-01      0.2201026441E+00
          0                 4           2             7   13     1       0.1126248908E-03       7   13    1         0.6458257853E-02      0.1023808982E-01
          0                 5           1             7   13     1      -0.4477552460E-05       7   13    1        -0.2636516392E-03      0.2799971491E-03

    ------------------------------------------------
       NWT REQUIRED            5 OUTER ITERATIONS 
       AND A TOTAL OF          9 INNER ITERATIONS.
    ------------------------------------------------

 NO OUTPUT CONTROL FOR STRESS PERIOD   32   TIME STEP   20
 
 SOLVING FOR HEAD 
                                                   Max.-Head-Change                         Max.-Flux-Residual
  Residual-Control   Outer-Iter.   Inner-Iter.     Column Row Layer    Maximum-Head-Change  Column Row Layer    Maximum-Flux-Residual          L2-NORM 
          0                 1           2             4    7     1      -0.2124271784E-01       4    7    1        -0.1115638077E+01      0.2923916141E+01
          0                 2           2             4   13     1      -0.2128283717E-01       4   13    1        -0.1251012021E+01      0.2184742852E+01
          0                 3           2             7   13     1      -0.1648178096E-02       7   13    1        -0.9203206174E-01      0.2200289520E+00
          0                 4           2             7   13     1       0.1121836477E-03       7   13    1         0.6432996105E-02      0.1022364262E-01
          0                 5           1             7   13     1      -0.4460311481E-05       7   13    1        -0.2626362711E-03      0.2790308884E-03

    ------------------------------------------------
       NWT REQUIRED            5 OUTER ITERATIONS 
       AND A TOTAL OF          9 INNER ITERATIONS.
    ------------------------------------------------

 NO OUTPUT CONTROL FOR STRESS PERIOD   32   TIME STEP   21
 
 SOLVING FOR HEAD 
                                                   Max.-Head-Change                         Max.-Flux-Residual
  Residual-Control   Outer-Iter.   Inner-Iter.     Column Row Layer    Maximum-Head-Change  Column Row Layer    Maximum-Flux-Residual          L2-NORM 
          0                 1           2             4    7     1      -0.2100790370E-01       4    7    1        -0.1103433579E+01      0.2912194461E+01
          0                 2           2             4   13     1      -0.2131508168E-01       4   13    1        -0.1252903010E+01      0.2188194113E+01
          0                 3           2             7   13     1      -0.1641831788E-02       7   13    1        -0.9167874894E-01      0.2199571776E+00
          0                 4           2             7   13     1       0.1117513351E-03       7   13    1         0.6408248217E-02      0.1020971761E-01
          0                 5           1             7   13     1      -0.4443058529E-05       7   13    1        -0.2616215743E-03      0.2780021263E-03

    ------------------------------------------------
       NWT REQUIRED            5 OUTER ITERATIONS 
       AND A TOTAL OF          9 INNER ITERATIONS.
    ------------------------------------------------

 NO OUTPUT CONTROL FOR STRESS PERIOD   32   TIME STEP   22
 
 SOLVING FOR HEAD 
                                                   Max.-Head-Change                         Max.-Flux-Residual
  Residual-Control   Outer-Iter.   Inner-Iter.     Column Row Layer    Maximum-Head-Change  Column Row Layer    Maximum-Flux-Residual          L2-NORM 
          0                 1           2             4    7     1      -0.2077362515E-01       4    7    1        -0.1091242820E+01      0.2900728676E+01
          0                 2           2             4   13     1      -0.2134470318E-01       4   13    1        -0.1254639576E+01      0.2191398993E+01
          0                 3           2             7   13     1      -0.1635626862E-02       7   13    1        -0.9133330965E-01      0.2198519474E+00
          0                 4           2             7   13     1       0.1113287593E-03       7   13    1         0.6384055956E-02      0.1019546173E-01
          0                 5           1             7   13     1      -0.4426791078E-05       7   13    1        -0.2606630446E-03      0.2769355288E-03

    ------------------------------------------------
       NWT REQUIRED            5 OUTER ITERATIONS 
       AND A TOTAL OF          9 INNER ITERATIONS.
    ------------------------------------------------

 NO OUTPUT CONTROL FOR STRESS PERIOD   32   TIME STEP   23
 
 SOLVING FOR HEAD 
                                                   Max.-Head-Change                         Max.-Flux-Residual
  Residual-Control   Outer-Iter.   Inner-Iter.     Column Row Layer    Maximum-Head-Change  Column Row Layer    Maximum-Flux-Residual          L2-NORM 
          0                 1           2             4    7     1      -0.2053987531E-01       4    7    1        -0.1079065784E+01      0.2889519803E+01
          0                 2           2             4   13     1      -0.2137194354E-01       4   13    1        -0.1256235954E+01      0.2194380283E+01
          0                 3           2             7   13     1      -0.1629563893E-02       7   13    1        -0.9099577195E-01      0.2197796838E+00
          0                 4           2             7   13     1       0.1109168112E-03       7   13    1         0.6360472038E-02      0.1018164921E-01
          0                 5           1             7   13     1      -0.4410491161E-05       7   13    1        -0.2597039866E-03      0.2762357553E-03

    ------------------------------------------------
       NWT REQUIRED            5 OUTER ITERATIONS 
       AND A TOTAL OF          9 INNER ITERATIONS.
    ------------------------------------------------

 NO OUTPUT CONTROL FOR STRESS PERIOD   32   TIME STEP   24
 
 SOLVING FOR HEAD 
                                                   Max.-Head-Change                         Max.-Flux-Residual
  Residual-Control   Outer-Iter.   Inner-Iter.     Column Row Layer    Maximum-Head-Change  Column Row Layer    Maximum-Flux-Residual          L2-NORM 
          0                 1           2             4    7     1      -0.2030688287E-01       4    7    1        -0.1066915995E+01      0.2878520364E+01
          0                 2           2             4   13     1      -0.2139699197E-01       4   13    1        -0.1257703345E+01      0.2197149357E+01
          0                 3           2             7   13     1      -0.1623631257E-02       7   13    1        -0.9066549488E-01      0.2196639219E+00
          0                 4           2             7   13     1       0.1105118479E-03       7   13    1         0.6337291258E-02      0.1016898303E-01
          0                 5           1             7   13     1      -0.4394316043E-05       7   13    1        -0.2587505610E-03      0.2755668470E-03

    ------------------------------------------------
       NWT REQUIRED            5 OUTER ITERATIONS 
       AND A TOTAL OF          9 INNER ITERATIONS.
    ------------------------------------------------

 NO OUTPUT CONTROL FOR STRESS PERIOD   32   TIME STEP   25
 
 SOLVING FOR HEAD 
                                                   Max.-Head-Change                         Max.-Flux-Residual
  Residual-Control   Outer-Iter.   Inner-Iter.     Column Row Layer    Maximum-Head-Change  Column Row Layer    Maximum-Flux-Residual          L2-NORM 
          0                 1           2             4    7     1      -0.2007513795E-01       4   13    1         0.1071153633E+01      0.2867733452E+01
          0                 2           2             4   13     1      -0.2142010956E-01       4   13    1        -0.1259057145E+01      0.2199728948E+01
          0                 3           2             7   13     1      -0.1617832651E-02       7   13    1        -0.9034267577E-01      0.2195871386E+00
          0                 4           2             7   13     1       0.1101170041E-03       7   13    1         0.6314685180E-02      0.1015500200E-01
          0                 5           1             7   13     1      -0.4377871755E-05       7   13    1        -0.2577832629E-03      0.2746327317E-03

    ------------------------------------------------
       NWT REQUIRED            5 OUTER ITERATIONS 
       AND A TOTAL OF          9 INNER ITERATIONS.
    ------------------------------------------------

 NO OUTPUT CONTROL FOR STRESS PERIOD   32   TIME STEP   26
 
 SOLVING FOR HEAD 
                                                   Max.-Head-Change                         Max.-Flux-Residual
  Residual-Control   Outer-Iter.   Inner-Iter.     Column Row Layer    Maximum-Head-Change  Column Row Layer    Maximum-Flux-Residual          L2-NORM 
          0                 1           2             4    7     1      -0.1984454953E-01       4   13    1         0.1077930433E+01      0.2857156981E+01
          0                 2           2             4   13     1      -0.2144141295E-01       4   13    1        -0.1260304225E+01      0.2202129054E+01
          0                 3           2             7   13     1      -0.1612157465E-02       7   13    1        -0.9002673254E-01      0.2194800514E+00
          0                 4           2             7   13     1       0.1097305542E-03       7   13    1         0.6292562189E-02      0.1014132815E-01
          0                 5           1             7   13     1      -0.4363260545E-05       7   13    1        -0.2569230210E-03      0.2735055685E-03

    ------------------------------------------------
       NWT REQUIRED            5 OUTER ITERATIONS 
       AND A TOTAL OF          9 INNER ITERATIONS.
    ------------------------------------------------

 NO OUTPUT CONTROL FOR STRESS PERIOD   32   TIME STEP   27
 
 SOLVING FOR HEAD 
                                                   Max.-Head-Change                         Max.-Flux-Residual
  Residual-Control   Outer-Iter.   Inner-Iter.     Column Row Layer    Maximum-Head-Change  Column Row Layer    Maximum-Flux-Residual          L2-NORM 
          0                 1           2             4    7     1      -0.1961531550E-01       4   13    1         0.1084132904E+01      0.2846755762E+01
          0                 2           2             4   13     1      -0.2146108762E-01       4   13    1        -0.1261455568E+01      0.2204365065E+01
          0                 3           2             7   13     1      -0.1606606746E-02       7   13    1        -0.8971771809E-01      0.2193999027E+00
          0                 4           2             7   13     1       0.1093534355E-03       7   13    1         0.6270971518E-02      0.1012826946E-01
          0                 5           1             7   13     1      -0.4348518549E-05       7   13    1        -0.2560540329E-03      0.2728373269E-03

    ------------------------------------------------
       NWT REQUIRED            5 OUTER ITERATIONS 
       AND A TOTAL OF          9 INNER ITERATIONS.
    ------------------------------------------------

 NO OUTPUT CONTROL FOR STRESS PERIOD   32   TIME STEP   28
 
 SOLVING FOR HEAD 
                                                   Max.-Head-Change                         Max.-Flux-Residual
  Residual-Control   Outer-Iter.   Inner-Iter.     Column Row Layer    Maximum-Head-Change  Column Row Layer    Maximum-Flux-Residual          L2-NORM 
          0                 1           2             4    7     1      -0.1938757273E-01       4   13    1         0.1089819232E+01      0.2836536485E+01
          0                 2           2             4   13     1      -0.2147927591E-01       4   13    1        -0.1262519544E+01      0.2206447422E+01
          0                 3           2             7   13     1      -0.1601173597E-02       4   13    1         0.8960468792E-01      0.2192891688E+00
          0                 4           2             7   13     1       0.1089823913E-03       7   13    1         0.6249731300E-02      0.1011386212E-01
          0                 5           1             7   13     1      -0.4332979172E-05       7   13    1        -0.2551408825E-03      0.2719585331E-03

    ------------------------------------------------
       NWT REQUIRED            5 OUTER ITERATIONS 
       AND A TOTAL OF          9 INNER ITERATIONS.
    ------------------------------------------------

 NO OUTPUT CONTROL FOR STRESS PERIOD   32   TIME STEP   29
 
 SOLVING FOR HEAD 
                                                   Max.-Head-Change                         Max.-Flux-Residual
  Residual-Control   Outer-Iter.   Inner-Iter.     Column Row Layer    Maximum-Head-Change  Column Row Layer    Maximum-Flux-Residual          L2-NORM 
          0                 1           2             4    7     1      -0.1916176163E-01       4   13    1         0.1095026675E+01      0.2826499636E+01
          0                 2           2             4   13     1      -0.2149608604E-01       4   13    1        -0.1263502551E+01      0.2208388149E+01
          0                 3           2             7   13     1      -0.1595857529E-02       4   13    1         0.8966637484E-01      0.2191803434E+00
          0                 4           2             7   13     1       0.1086218307E-03       7   13    1         0.6229141320E-02      0.1010240457E-01
          0                 5           1             7   13     1      -0.4318223821E-05       7   13    1        -0.2542774901E-03      0.2711871611E-03

    ------------------------------------------------
       NWT REQUIRED            5 OUTER ITERATIONS 
       AND A TOTAL OF          9 INNER ITERATIONS.
    ------------------------------------------------

 NO OUTPUT CONTROL FOR STRESS PERIOD   32   TIME STEP   30



 STREAM LISTING     PERIOD     32   STEP       30

 LAYER ROW COL. STREAM  RCH.  FLOW INTO     FLOW TO   FLOW OUT OF   OVRLND.     DIRECT     STREAM       STREAM     STREAM     STREAM   STREAMBED  STREAMBED
                SEG.NO.  NO.  STRM. RCH.    AQUIFER    STRM. RCH.    RUNOFF     PRECIP       ET          HEAD       DEPTH      WIDTH   CONDCTNC.   GRADIENT

   1    1    1     1     1    5.6248E+01  3.5874E-01   5.5890E+01  0.000E+00  0.000E+00  0.000E+00  1.09453E+03  1.479E+00  1.780E+01  8.009E-02  1.493E+00
   1    2    2     1     2    5.5890E+01  5.5549E-01   5.5334E+01  0.000E+00  0.000E+00  0.000E+00  1.08953E+03  1.473E+00  1.774E+01  1.242E-01  1.491E+00
   1    3    3     1     3    5.5334E+01  4.7367E-01   5.4860E+01  0.000E+00  0.000E+00  0.000E+00  1.08389E+03  1.467E+00  1.767E+01  1.060E-01  1.489E+00
   1    3    4     1     4    5.4860E+01  4.3612E-01   5.4424E+01  0.000E+00  0.000E+00  0.000E+00  1.07887E+03  1.461E+00  1.762E+01  9.777E-02  1.487E+00
   1    4    5     2     1    5.2424E+01  3.8056E-01   5.2044E+01  0.000E+00  0.000E+00  0.000E+00  1.07381E+03  1.879E+00  1.200E+01  7.800E-02  1.626E+00
   1    5    6     2     2    5.2044E+01  2.9230E-01   5.1751E+01  0.000E+00  0.000E+00  0.000E+00  1.06838E+03  1.872E+00  1.200E+01  6.000E-02  1.624E+00
   1    6    6     2     3    5.1751E+01  2.9192E-01   5.1459E+01  0.000E+00  0.000E+00  0.000E+00  1.06366E+03  1.865E+00  1.200E+01  6.000E-02  1.622E+00
   1    7    6     2     4    5.1459E+01  2.9154E-01   5.1168E+01  0.000E+00  0.000E+00  0.000E+00  1.05893E+03  1.859E+00  1.200E+01  6.000E-02  1.620E+00
   1    8    6     2     5    5.1168E+01  2.9116E-01   5.0877E+01  0.000E+00  0.000E+00  0.000E+00  1.05421E+03  1.853E+00  1.200E+01  6.000E-02  1.618E+00
   1    3    5     3     1    2.0000E+00  2.8252E-01   1.7175E+00  0.000E+00  0.000E+00  0.000E+00  1.07555E+03  1.909E+00  9.636E+00  7.227E-02  1.955E+00
   1    3    6     3     2    1.7175E+00  2.4905E-01   1.4684E+00  0.000E+00  0.000E+00  0.000E+00  1.07264E+03  1.727E+00  8.909E+00  6.682E-02  1.864E+00
   1    3    7     3     3    1.4684E+00  1.9718E-01   1.2712E+00  0.000E+00  0.000E+00  0.000E+00  1.06987E+03  1.555E+00  8.218E+00  5.547E-02  1.777E+00
   1    4    8     3     4    1.2712E+00  2.2567E-01   1.0456E+00  0.000E+00  0.000E+00  0.000E+00  1.06682E+03  1.364E+00  7.455E+00  6.709E-02  1.682E+00
   1    5    8     3     5    1.0456E+00  1.5790E-01   8.8768E-01  0.000E+00  0.000E+00  0.000E+00  1.06362E+03  1.164E+00  6.655E+00  4.991E-02  1.582E+00
   1    6    8     3     6    8.8768E-01  5.5980E-02   8.3170E-01  0.000E+00  0.000E+00  0.000E+00  1.06158E+03  1.036E+00  6.145E+00  1.844E-02  1.518E+00
   1    5   10     4     1    1.0000E+01  9.0919E-02   9.9091E+00  0.000E+00  0.000E+00  0.000E+00  1.07836E+03  6.368E-01  1.000E+01  2.500E-02  1.212E+00
   1    5    9     4     2    9.9091E+00  1.8158E-01   9.7275E+00  0.000E+00  0.000E+00  0.000E+00  1.07154E+03  6.315E-01  1.000E+01  5.000E-02  1.211E+00
   1    6    8     4     3    9.7275E+00  1.2689E-01   9.6006E+00  0.000E+00  0.000E+00  0.000E+00  1.06381E+03  6.256E-01  1.000E+01  3.500E-02  1.209E+00
   1    6    8     5     1    1.0432E+01  2.2686E-01   1.0205E+01  0.000E+00  0.000E+00  0.000E+00  1.05868E+03  6.790E-01  1.542E+01  6.166E-02  1.226E+00
   1    7    7     5     2    1.0205E+01  2.7894E-01   9.9265E+00  0.000E+00  0.000E+00  0.000E+00  1.05417E+03  6.732E-01  1.519E+01  7.594E-02  1.224E+00
   1    8    7     5     3    9.9265E+00  1.9221E-01   9.7343E+00  0.000E+00  0.000E+00  0.000E+00  1.04992E+03  6.676E-01  1.497E+01  5.241E-02  1.223E+00
   1    8    6     5     4    9.7343E+00  1.3577E-01   9.5985E+00  0.000E+00  0.000E+00  0.000E+00  1.04691E+03  6.637E-01  1.482E+01  3.706E-02  1.221E+00
   1    9    6     6     1    9.5985E+00  2.2097E-01   9.3776E+00  0.000E+00  0.000E+00  0.000E+00  1.04341E+03  6.828E-01  1.200E+01  6.000E-02  1.228E+00
   1   10    7     6     2    9.3776E+00  2.2039E-01   9.1572E+00  0.000E+00  0.000E+00  0.000E+00  1.03885E+03  6.732E-01  1.200E+01  6.000E-02  1.224E+00
   1   11    7     6     3    9.1572E+00  2.1981E-01   8.9374E+00  0.000E+00  0.000E+00  0.000E+00  1.03430E+03  6.636E-01  1.200E+01  6.000E-02  1.221E+00
   1   12    7     6     4    8.9374E+00  2.1923E-01   8.7181E+00  0.000E+00  0.000E+00  0.000E+00  1.02974E+03  6.539E-01  1.200E+01  6.000E-02  1.218E+00
   1   13    7     6     5    8.7181E+00 -1.1843E-01   8.8366E+00  0.000E+00  0.000E+00  0.000E+00  1.02656E+03  6.516E-01  1.200E+01  2.400E-01 -1.645E-01
   1   14    9     7     1    1.5000E+02  1.3393E+00   1.4866E+02  0.000E+00  0.000E+00  0.000E+00  1.03987E+03  2.288E+00  5.529E+01  5.593E-01  7.982E-01
   1   13    8     7     2    1.4866E+02  1.8355E+00   1.4683E+02  0.000E+00  0.000E+00  0.000E+00  1.03478E+03  2.279E+00  5.526E+01  6.148E-01  9.952E-01
   1   13    7     7     3    1.4683E+02  1.4719E+00   1.4535E+02  0.000E+00  0.000E+00  0.000E+00  1.02969E+03  2.270E+00  5.522E+01  5.585E-01  8.785E-01
   1   13    6     8     1    1.5419E+02  8.2736E-01   1.5336E+02  0.000E+00  0.000E+00  0.000E+00  1.02472E+03  2.843E+00  4.123E+01  4.201E-01  6.565E-01
   1   13    5     8     2    1.5336E+02  1.0322E-01   1.5326E+02  0.000E+00  0.000E+00  0.000E+00  1.01846E+03  2.840E+00  4.118E+01  4.196E-01  8.199E-02
   1   13    4     8     3    1.5326E+02 -2.6656E+00   1.5592E+02  0.000E+00  0.000E+00  0.000E+00  1.01222E+03  2.849E+00  4.131E+01  4.209E+00 -2.111E-01
   1   13    3     8     4    1.5592E+02 -3.7823E+00   1.5971E+02  0.000E+00  0.000E+00  0.000E+00  1.00600E+03  2.871E+00  4.163E+01  4.242E+00 -2.972E-01
   1   13    2     8     5    1.5971E+02 -2.6845E+00   1.6239E+02  0.000E+00  0.000E+00  0.000E+00  9.99768E+02  2.893E+00  4.195E+01  4.275E+00 -2.093E-01
   1   13    1     8     6    1.6239E+02 -2.0933E+00   1.6449E+02  0.000E+00  0.000E+00  0.000E+00  9.94784E+02  2.909E+00  4.218E+01  2.579E+00 -2.706E-01
   1    8    6     9     1    5.0877E+01  0.0000E+00   5.0877E+01  0.000E+00  0.000E+00  0.000E+00  1.08476E+03  6.014E+00  4.000E+00  0.000E+00  3.005E+00
   1    8    5     9     2    5.0877E+01  0.0000E+00   5.0877E+01  0.000E+00  0.000E+00  0.000E+00  1.08426E+03  6.014E+00  4.000E+00  0.000E+00  3.005E+00





UNSATURATED ZONE PACKAGE VOLUMETRIC BUDGET FOR  TIME STEP    30 STRESS PERIOD   32
  ------------------------------------------------------------------------------



     CUMULATIVE VOLUMES      L**3       RATES FOR THIS TIME STEP      L**3/T
     ------------------                 ------------------------

           IN:                                      IN:
           ---                                      ---
        INFILTRATION =  1395281686.2805          INFILTRATION =          64.2425

          OUT:                                     OUT:
          ----                                     ----
              UZF ET =  1298979512.7798                UZF ET =          64.1075
        UZF RECHARGE =     1188452.4670          UZF RECHARGE =       0.0000E+00

            IN - OUT =    95113721.0337              IN - OUT =           0.1350

          STORAGE:                                 STORAGE:
          --------                                 --------
      STORAGE CHANGE =    95114686.6139        STORAGE CHANGE =           0.1350

 PERCENT DISCREPANCY IS DIFFERENCE BETWEEN IN-OUT MINUS CHANGE IN STORAGE
 DIVIDED BY THE AVERAGE OF IN AND OUT TIMES 100

 PERCENT DISCREPANCY =          -0.00     PERCENT DISCREPANCY =           0.00






1
  VOLUMETRIC BUDGET FOR ENTIRE MODEL AT END OF TIME STEP   30, STRESS PERIOD  32
  ------------------------------------------------------------------------------

     CUMULATIVE VOLUMES      L**3       RATES FOR THIS TIME STEP      L**3/T
     ------------------                 ------------------------

           IN:                                      IN:
           ---                                      ---
               AG WELLS  =   199454656.0000                 AG WELLS  =           8.9572
      DIVERSION SEGMENTS =   836394944.0000        DIVERSION SEGMENTS =          50.8768
           GW IRRIGATION =           0.0000             GW IRRIGATION =           0.0000
           SW IRRIGATION =           0.0000             SW IRRIGATION =           0.0000
        SYSTEM LOSSES GW =           0.0000          SYSTEM LOSSES GW =           0.0000
        SYSTEM LOSSES SW =           0.0000          SYSTEM LOSSES SW =           0.0000

                TOTAL IN =  1035849600.0000                  TOTAL IN =          59.8340

          OUT:                                     OUT:
          ----                                     ----
               AG WELLS  =           0.0000                 AG WELLS  =           0.0000
      DIVERSION SEGMENTS =           0.0000        DIVERSION SEGMENTS =           0.0000
           GW IRRIGATION =   199454656.0000             GW IRRIGATION =           8.9572
           SW IRRIGATION =   836412160.0000             SW IRRIGATION =          50.8778
        SYSTEM LOSSES GW =           0.0000          SYSTEM LOSSES GW =           0.0000
        SYSTEM LOSSES SW =           0.0000          SYSTEM LOSSES SW =           0.0000

               TOTAL OUT =  1035866816.0000                 TOTAL OUT =          59.8350

                IN - OUT =      -17216.0000                  IN - OUT =      -1.0147E-03

     PERCENT DISCREPANCY =          -0.00         PERCENT DISCREPANCY =          -0.00



1
  VOLUMETRIC BUDGET FOR ENTIRE MODEL AT END OF TIME STEP   30, STRESS PERIOD  32
  ------------------------------------------------------------------------------

     CUMULATIVE VOLUMES      L**3       RATES FOR THIS TIME STEP      L**3/T
     ------------------                 ------------------------

           IN:                                      IN:
           ---                                      ---
             STORAGE     =   335370784.0000               STORAGE     =           8.7890
       CONSTANT HEAD     =           0.0000         CONSTANT HEAD     =           0.0000
     HEAD DEP BOUNDS     =    23327014.0000       HEAD DEP BOUNDS     =           0.2860
      STREAM LEAKAGE     =   975489024.0000        STREAM LEAKAGE     =          12.2307
        UZF RECHARGE     =     1188452.5000          UZF RECHARGE     =           0.0000
               GW ET     =           0.0000                 GW ET     =           0.0000
     SURFACE LEAKAGE     =           0.0000       SURFACE LEAKAGE     =           0.0000
           AG WELLS      =           0.0000             AG WELLS      =           0.0000

                TOTAL IN =  1335375232.0000                  TOTAL IN =          21.3057

          OUT:                                     OUT:
          ----                                     ----
             STORAGE     =   224208400.0000               STORAGE     =           0.7157
       CONSTANT HEAD     =           0.0000         CONSTANT HEAD     =           0.0000
     HEAD DEP BOUNDS     =    23740682.0000       HEAD DEP BOUNDS     =           0.2886
      STREAM LEAKAGE     =   884714048.0000        STREAM LEAKAGE     =          11.3442
        UZF RECHARGE     =           0.0000          UZF RECHARGE     =           0.0000
               GW ET     =     3265349.0000                 GW ET     =           0.0000
     SURFACE LEAKAGE     =           0.0000       SURFACE LEAKAGE     =           0.0000
           AG WELLS      =   199454656.0000             AG WELLS      =           8.9572

               TOTAL OUT =  1335383296.0000                 TOTAL OUT =          21.3057

                IN - OUT =       -8064.0000                  IN - OUT =       5.7220E-06

     PERCENT DISCREPANCY =          -0.00         PERCENT DISCREPANCY =           0.00






         TIME SUMMARY AT END OF TIME STEP   30 IN STRESS PERIOD   32
                    SECONDS     MINUTES      HOURS       DAYS        YEARS
                    -----------------------------------------------------------
   TIME STEP LENGTH  87667.      1461.1      24.352      1.0147     2.77799E-03
 STRESS PERIOD TIME 2.63000E+06  43833.      730.56      30.440     8.33397E-02
         TOTAL TIME 8.16164E+07 1.36027E+06  22671.      944.63      2.5863    
1
1
                            STRESS PERIOD NO.   33, LENGTH =   2630000.    
                            -----------------------------------------------

                              NUMBER OF TIME STEPS =    30

                               MULTIPLIER FOR DELT =     1.000

                            INITIAL TIME STEP SIZE =   87666.66    

 REUSING NON-PARAMETER GHB CELLS FROM LAST STRESS PERIOD

      2 GHB CELLS

 REUSING STREAM SEGMENT DATA FROM LAST STRESS PERIOD



            AREAL INFILTRATION RATE
 READING ON UNIT   19 WITH FORMAT: (10F4.0)            

            1           2           3           4           5           6           7           8           9          10
 ........................................................................................................................
   1   1.2000E-09   0.000       0.000       0.000       0.000       0.000       0.000       0.000       0.000       0.000    
   2   2.1000E-09  2.0000E-09  8.0000E-10  8.5000E-09   0.000       0.000       0.000       0.000       0.000       0.000    
   3   5.0000E-10  1.1000E-09  8.8000E-09  5.5000E-09   0.000       0.000       0.000       0.000       0.000       0.000    
   4   8.5000E-09  1.1000E-09  1.1000E-09  1.1000E-09  2.0000E-09   0.000       0.000       0.000       0.000       0.000    
   5   8.5000E-09  1.1000E-09  1.1000E-09  1.1000E-09  1.1000E-09   0.000       0.000       0.000       0.000       0.000    
   6   8.5000E-09  5.2000E-09  2.1000E-09  1.1000E-09  1.5000E-09   0.000       0.000       0.000       0.000       0.000    
   7   8.5000E-09  5.2000E-09  2.1000E-09  1.2000E-09  2.0000E-09   0.000       0.000       0.000       0.000       0.000    
   8   5.0000E-10  5.2000E-09  2.1000E-09  1.2000E-09  5.0000E-09   0.000       0.000       0.000       0.000       0.000    
   9   5.0000E-10  5.2000E-09  2.1000E-09  1.2000E-09  5.0000E-09   0.000       0.000       0.000       0.000       0.000    
  10   5.0000E-10  5.2000E-09  2.1000E-09  1.2000E-09  5.8000E-09   0.000       0.000       0.000       0.000       0.000    
  11   1.0000E-10  1.1000E-09  1.1000E-09  1.2000E-09  5.0000E-09   0.000       0.000       0.000       0.000       0.000    
  12   1.1000E-09  1.1000E-09  1.1000E-09  1.1000E-09  2.0000E-09   0.000       0.000       0.000       0.000       0.000    
  13   1.1000E-09  2.2000E-09  2.2000E-09  2.1000E-09  1.0000E-09   0.000       0.000       0.000       0.000       0.000    
  14   2.0000E-10  5.5000E-09  5.5000E-09  5.2000E-09  1.0000E-09   0.000       0.000       0.000       0.000       0.000    
  15    0.000      8.8000E-09  8.8000E-09   0.000       0.000       0.000       0.000       0.000       0.000       0.000    

                  ET RATE =  3.250000E-07

 USING ET EXTINCTION DEPTH FROM PREVIOUS STRESS PERIOD. CURRENT PERIOD IS:      33

 USING EXTINCTION WATER CONTENT FROM PREVIOUS STRESS PERIOD. CURRENT PERIOD IS:      33

 USING AIR ENTRY PRESSURE FROM PREVIOUS STRESS PERIOD. CURRENT PERIOD IS:      33

 USING ROOT PRESSURE HEAD FROM PREVIOUS STRESS PERIOD. CURRENT PERIOD IS:      33

 USING ROOT ACTIVITY FROM PREVIOUS STRESS PERIOD. CURRENT PERIOD IS:      33

 PROCESSING AG STRESS PERIOD DATA

 READING AG STRESS PERIOD DATA

 READING IRRIGATION SEGMENT

 READING IRRIGATION WELL

 READING SUPPLEMENTAL WELL

 END PROCESSING AG STRESS PERIOD DATA OPTIONS
 
 SOLVING FOR HEAD 
                                                   Max.-Head-Change                         Max.-Flux-Residual
  Residual-Control   Outer-Iter.   Inner-Iter.     Column Row Layer    Maximum-Head-Change  Column Row Layer    Maximum-Flux-Residual          L2-NORM 
          0                 1           2             4   13     1       0.1887538624E-01       4   13    1         0.1088677164E+01      0.2522131696E+01
          0                 2           2             4   13     1      -0.2049361564E-01       4   13    1        -0.1204991610E+01      0.2105734120E+01
          0                 3           2             4   13     1       0.1388025985E-02       4   13    1         0.8390596194E-01      0.1584282325E+00
          0                 4           2             4   13     1      -0.1566820753E-03       4   13    1        -0.9734115284E-02      0.1668753765E-01
          0                 5           1             4   13     1       0.1824293555E-05       4   13    1         0.1165782933E-03      0.1918528834E-03

    ------------------------------------------------
       NWT REQUIRED            5 OUTER ITERATIONS 
       AND A TOTAL OF          9 INNER ITERATIONS.
    ------------------------------------------------

 NO OUTPUT CONTROL FOR STRESS PERIOD   33   TIME STEP    1
 
 SOLVING FOR HEAD 
                                                   Max.-Head-Change                         Max.-Flux-Residual
  Residual-Control   Outer-Iter.   Inner-Iter.     Column Row Layer    Maximum-Head-Change  Column Row Layer    Maximum-Flux-Residual          L2-NORM 
          0                 1           2             4    7     1      -0.1563388909E-01       4   13    1         0.8592538595E+00      0.2269333901E+01
          0                 2           2             4   13     1      -0.1706154928E-01       4   13    1        -0.1002883313E+01      0.1752219859E+01
          0                 3           2             7   13     1      -0.1660300527E-02       7   13    1        -0.9266521689E-01      0.2010611715E+00
          0                 4           2             7   13     1       0.1130068278E-03       7   13    1         0.6478841844E-02      0.9647659700E-02
          0                 5           1             7   13     1      -0.4493958526E-05       7   13    1        -0.2646431994E-03      0.2789129934E-03

    ------------------------------------------------
       NWT REQUIRED            5 OUTER ITERATIONS 
       AND A TOTAL OF          9 INNER ITERATIONS.
    ------------------------------------------------

 NO OUTPUT CONTROL FOR STRESS PERIOD   33   TIME STEP    2
 
 SOLVING FOR HEAD 
                                                   Max.-Head-Change                         Max.-Flux-Residual
  Residual-Control   Outer-Iter.   Inner-Iter.     Column Row Layer    Maximum-Head-Change  Column Row Layer    Maximum-Flux-Residual          L2-NORM 
          0                 1           2             4    7     1      -0.1541747883E-01       4   13    1         0.8635843664E+00      0.2260283948E+01
          0                 2           2             4   13     1      -0.1707452494E-01       4   13    1        -0.1003641870E+01      0.1753664411E+01
          0                 3           2             7   13     1      -0.1655264461E-02       7   13    1        -0.9238485265E-01      0.2026756526E+00
          0                 4           2             7   13     1       0.1126648348E-03       7   13    1         0.6459262590E-02      0.9695632856E-02
          0                 5           1             7   13     1      -0.4478583783E-05       7   13    1        -0.2637346474E-03      0.2782883022E-03

    ------------------------------------------------
       NWT REQUIRED            5 OUTER ITERATIONS 
       AND A TOTAL OF          9 INNER ITERATIONS.
    ------------------------------------------------

 NO OUTPUT CONTROL FOR STRESS PERIOD   33   TIME STEP    3
 
 SOLVING FOR HEAD 
                                                   Max.-Head-Change                         Max.-Flux-Residual
  Residual-Control   Outer-Iter.   Inner-Iter.     Column Row Layer    Maximum-Head-Change  Column Row Layer    Maximum-Flux-Residual          L2-NORM 
          0                 1           2             4   13     1       0.1505680286E-01       4   13    1         0.8675541633E+00      0.1643035539E+01
          0                 2           2             4   13     1      -0.1708654055E-01       4   13    1        -0.1004343856E+01      0.1766410421E+01
          0                 3           2             4    7     1      -0.9718317870E-02       5    8    1        -0.5080888774E+00      0.1250937613E+01
          0                 4           2             4    7     1       0.9453267442E-03       5    7    1         0.5109868041E-01      0.1134965297E+00
          0                 5           1             4    7     1      -0.6437325309E-04       5    7    1        -0.3610689584E-02      0.7426544644E-02

    ------------------------------------------------
       NWT REQUIRED            5 OUTER ITERATIONS 
       AND A TOTAL OF          9 INNER ITERATIONS.
    ------------------------------------------------

 NO OUTPUT CONTROL FOR STRESS PERIOD   33   TIME STEP    4
 
 SOLVING FOR HEAD 
                                                   Max.-Head-Change                         Max.-Flux-Residual
  Residual-Control   Outer-Iter.   Inner-Iter.     Column Row Layer    Maximum-Head-Change  Column Row Layer    Maximum-Flux-Residual          L2-NORM 
          0                 1           2             4   13     1       0.1512086646E-01       4   13    1         0.8712067239E+00      0.1646107375E+01
          0                 2           2             4   13     1      -0.1709768088E-01       4   13    1        -0.1004994552E+01      0.1771133375E+01
          0                 3           2             4    7     1      -0.8839133105E-02       5    8    1        -0.4624991320E+00      0.1139666410E+01
          0                 4           2             5    6     1      -0.5236199252E-03       5    6    1        -0.2923214452E-01      0.5157873138E-01
          0                 5           1             5    6     1       0.3566673155E-04       5    6    1         0.2032419607E-02      0.4168967847E-02

    ------------------------------------------------
       NWT REQUIRED            5 OUTER ITERATIONS 
       AND A TOTAL OF          9 INNER ITERATIONS.
    ------------------------------------------------

 NO OUTPUT CONTROL FOR STRESS PERIOD   33   TIME STEP    5
 
 SOLVING FOR HEAD 
                                                   Max.-Head-Change                         Max.-Flux-Residual
  Residual-Control   Outer-Iter.   Inner-Iter.     Column Row Layer    Maximum-Head-Change  Column Row Layer    Maximum-Flux-Residual          L2-NORM 
          0                 1           2             4   13     1       0.1517973551E-01       4   13    1         0.8745608416E+00      0.1652064855E+01
          0                 2           2             4   13     1      -0.1710803496E-01       4   13    1        -0.1005599079E+01      0.1778049876E+01
          0                 3           2             4    7     1      -0.6863064508E-02       5    8    1        -0.3597934952E+00      0.8902176477E+00
          0                 4           2             5    6     1      -0.2708713353E-02       5    6    1        -0.1492726485E+00      0.3479082482E+00
          0                 5           2             4    7     1       0.2576222464E-03       5    7    1         0.1395337057E-01      0.3139013517E-01
          0                 6           1             4    7     1      -0.1754312084E-04       5    7    1        -0.9866194550E-03      0.2039147660E-02

    ------------------------------------------------
       NWT REQUIRED            6 OUTER ITERATIONS 
       AND A TOTAL OF         11 INNER ITERATIONS.
    ------------------------------------------------

 NO OUTPUT CONTROL FOR STRESS PERIOD   33   TIME STEP    6
 
 SOLVING FOR HEAD 
                                                   Max.-Head-Change                         Max.-Flux-Residual
  Residual-Control   Outer-Iter.   Inner-Iter.     Column Row Layer    Maximum-Head-Change  Column Row Layer    Maximum-Flux-Residual          L2-NORM 
          0                 1           2             4   13     1       0.1523397254E-01       4   13    1         0.8776490082E+00      0.1660847531E+01
          0                 2           2             4   13     1      -0.1711766022E-01       4   13    1        -0.1006160815E+01      0.1785568375E+01
          0                 3           2             4    7     1      -0.5814034832E-02       4    6    1        -0.3060857408E+00      0.7603721820E+00
          0                 4           2             4    6     1      -0.3990159939E-02       5    8    1        -0.2175228409E+00      0.5214121492E+00
          0                 5           2             4    7     1       0.3880094638E-03       5    7    1         0.2102446922E-01      0.4473148802E-01
          0                 6           1             4    7     1      -0.2642200785E-04       5    7    1        -0.1486127620E-02      0.2763269416E-02

    ------------------------------------------------
       NWT REQUIRED            6 OUTER ITERATIONS 
       AND A TOTAL OF         11 INNER ITERATIONS.
    ------------------------------------------------

 NO OUTPUT CONTROL FOR STRESS PERIOD   33   TIME STEP    7
 
 SOLVING FOR HEAD 
                                                   Max.-Head-Change                         Max.-Flux-Residual
  Residual-Control   Outer-Iter.   Inner-Iter.     Column Row Layer    Maximum-Head-Change  Column Row Layer    Maximum-Flux-Residual          L2-NORM 
          0                 1           2             4   13     1       0.1528398933E-01       4   13    1         0.8804949599E+00      0.1672396897E+01
          0                 2           2             4   13     1      -0.1712662373E-01       4   13    1        -0.1006683752E+01      0.1793688874E+01
          0                 3           2             4    7     1      -0.5167627200E-02       5    7    1        -0.2730119500E+00      0.6836218946E+00
          0                 4           2             4    7     1      -0.4885561169E-02       4    6    1        -0.2630865143E+00      0.6410456337E+00
          0                 5           2             4    7     1       0.4752318060E-03       4    7    1         0.2583301526E-01      0.4849010088E-01
          0                 6           1             4    7     1      -0.3236153022E-04       4    7    1        -0.1832771357E-02      0.2475641603E-02

    ------------------------------------------------
       NWT REQUIRED            6 OUTER ITERATIONS 
       AND A TOTAL OF         11 INNER ITERATIONS.
    ------------------------------------------------

 NO OUTPUT CONTROL FOR STRESS PERIOD   33   TIME STEP    8
 
 SOLVING FOR HEAD 
                                                   Max.-Head-Change                         Max.-Flux-Residual
  Residual-Control   Outer-Iter.   Inner-Iter.     Column Row Layer    Maximum-Head-Change  Column Row Layer    Maximum-Flux-Residual          L2-NORM 
          0                 1           2             4   13     1       0.1533016461E-01       4   13    1         0.8831205265E+00      0.1686623317E+01
          0                 2           2             4   13     1      -0.1713499203E-01       4   13    1        -0.1007171792E+01      0.1802416989E+01
          0                 3           2             4    7     1      -0.4731819104E-02       5    7    1        -0.2507135608E+00      0.6302811861E+00
          0                 4           2             4    7     1      -0.5549847935E-02       4    6    1        -0.2970458432E+00      0.7245277434E+00
          0                 5           2             4    7     1       0.5398487564E-03       4    7    1         0.2935120015E-01      0.5484722277E-01
          0                 6           1             4    7     1      -0.3676170644E-04       4    7    1        -0.2082203440E-02      0.2804663639E-02

    ------------------------------------------------
       NWT REQUIRED            6 OUTER ITERATIONS 
       AND A TOTAL OF         11 INNER ITERATIONS.
    ------------------------------------------------

 NO OUTPUT CONTROL FOR STRESS PERIOD   33   TIME STEP    9
 
 SOLVING FOR HEAD 
                                                   Max.-Head-Change                         Max.-Flux-Residual
  Residual-Control   Outer-Iter.   Inner-Iter.     Column Row Layer    Maximum-Head-Change  Column Row Layer    Maximum-Flux-Residual          L2-NORM 
          0                 1           2             4   13     1       0.1537282907E-01       4   13    1         0.8855448719E+00      0.1703442328E+01
          0                 2           2             4   13     1      -0.1714288572E-01       4   13    1        -0.1007632080E+01      0.1811753223E+01
          0                 3           2             4    7     1      -0.4420262932E-02       5    7    1        -0.2349038492E+00      0.5925645134E+00
          0                 4           2             4    7     1      -0.6076616379E-02       4    6    1        -0.3240223184E+00      0.7908261777E+00
          0                 5           2             4    7     1       0.5910889279E-03       4    7    1         0.3214090522E-01      0.5989470926E-01
          0                 6           1             4    7     1      -0.4025097386E-04       4    7    1        -0.2279992060E-02      0.3065784934E-02

    ------------------------------------------------
       NWT REQUIRED            6 OUTER ITERATIONS 
       AND A TOTAL OF         11 INNER ITERATIONS.
    ------------------------------------------------

 NO OUTPUT CONTROL FOR STRESS PERIOD   33   TIME STEP   10
 
 SOLVING FOR HEAD 
                                                   Max.-Head-Change                         Max.-Flux-Residual
  Residual-Control   Outer-Iter.   Inner-Iter.     Column Row Layer    Maximum-Head-Change  Column Row Layer    Maximum-Flux-Residual          L2-NORM 
          0                 1           2             4   13     1       0.1541218134E-01       4   13    1         0.8877794040E+00      0.1722766963E+01
          0                 2           2             4   13     1      -0.1715013482E-01       4   13    1        -0.1008054502E+01      0.1821694557E+01
          0                 3           2             4    7     1      -0.4187951421E-02       5    7    1        -0.2232329892E+00      0.5647715869E+00
          0                 4           2             4    7     1      -0.6515386591E-02       4    6    1        -0.3465299912E+00      0.8461267602E+00
          0                 5           2             4    7     1       0.6337692740E-03       4    7    1         0.3446445584E-01      0.6410400238E-01
          0                 6           1             4    7     1      -0.4315734862E-04       4    7    1        -0.2444733944E-02      0.3283448533E-02

    ------------------------------------------------
       NWT REQUIRED            6 OUTER ITERATIONS 
       AND A TOTAL OF         11 INNER ITERATIONS.
    ------------------------------------------------

 NO OUTPUT CONTROL FOR STRESS PERIOD   33   TIME STEP   11
 
 SOLVING FOR HEAD 
                                                   Max.-Head-Change                         Max.-Flux-Residual
  Residual-Control   Outer-Iter.   Inner-Iter.     Column Row Layer    Maximum-Head-Change  Column Row Layer    Maximum-Flux-Residual          L2-NORM 
          0                 1           2             4   13     1       0.1544852498E-01       4   13    1         0.8898414176E+00      0.1744478117E+01
          0                 2           2             4   13     1      -0.1715690424E-01       4   13    1        -0.1008448776E+01      0.1832245182E+01
          0                 3           2             4    7     1      -0.4008189382E-02       4    7    1        -0.2151763562E+00      0.5459351227E+00
          0                 4           2             4    7     1      -0.6815751322E-02       5    6    1        -0.3659532357E+00      0.8963178493E+00
          0                 5           2             4    7     1       0.4642596983E-03       5    8    1         0.2562852089E-01      0.6276633550E-01
          0                 6           1             4    7     1      -0.1848209004E-04       5    8    1        -0.1048892880E-02      0.2568774194E-02

    ------------------------------------------------
       NWT REQUIRED            6 OUTER ITERATIONS 
       AND A TOTAL OF         11 INNER ITERATIONS.
    ------------------------------------------------

 NO OUTPUT CONTROL FOR STRESS PERIOD   33   TIME STEP   12
 
 SOLVING FOR HEAD 
                                                   Max.-Head-Change                         Max.-Flux-Residual
  Residual-Control   Outer-Iter.   Inner-Iter.     Column Row Layer    Maximum-Head-Change  Column Row Layer    Maximum-Flux-Residual          L2-NORM 
          0                 1           2             4   13     1       0.1548223414E-01       4   13    1         0.8917527903E+00      0.2411839683E+01
          0                 2           2             4   13     1      -0.1702880195E-01       4   13    1        -0.1000973122E+01      0.2193494348E+01
          0                 3           2             4    7     1      -0.6884252137E-02       4    7    1        -0.3695499960E+00      0.9134498551E+00
          0                 4           2             4    7     1      -0.3581727715E-02       5    6    1        -0.1923633403E+00      0.4711405585E+00
          0                 5           2             4    7     1      -0.4017329384E-02       4    7    1        -0.2156284209E+00      0.5281644409E+00
          0                 6           2             4    7     1       0.2736823598E-03       5    8    1         0.1510253997E-01      0.3699214836E-01
          0                 7           1             4    7     1      -0.1089782512E-04       5    8    1        -0.6182468369E-03      0.1514317472E-02

    ------------------------------------------------
       NWT REQUIRED            7 OUTER ITERATIONS 
       AND A TOTAL OF         13 INNER ITERATIONS.
    ------------------------------------------------

 NO OUTPUT CONTROL FOR STRESS PERIOD   33   TIME STEP   13
 
 SOLVING FOR HEAD 
                                                   Max.-Head-Change                         Max.-Flux-Residual
  Residual-Control   Outer-Iter.   Inner-Iter.     Column Row Layer    Maximum-Head-Change  Column Row Layer    Maximum-Flux-Residual          L2-NORM 
          0                 1           2             4   13     1       0.1551355927E-01       4   13    1         0.8935257240E+00      0.2427414577E+01
          0                 2           2             4   13     1      -0.1697281157E-01       4   13    1        -0.9977027181E+00      0.2173368508E+01
          0                 3           2             4    7     1      -0.7079228238E-02       4    7    1        -0.3800146860E+00      0.9380677168E+00
          0                 4           2             4    7     1      -0.3538986689E-02       5    6    1        -0.1900675867E+00      0.4655170389E+00
          0                 5           2             4    7     1      -0.4080165402E-02       4    7    1        -0.2190010359E+00      0.5364258232E+00
          0                 6           2             4    7     1       0.2779630900E-03       5    8    1         0.1533877499E-01      0.3757076623E-01
          0                 7           1             4    7     1      -0.1106828043E-04       5    8    1        -0.6279174272E-03      0.1538001501E-02

    ------------------------------------------------
       NWT REQUIRED            7 OUTER ITERATIONS 
       AND A TOTAL OF         13 INNER ITERATIONS.
    ------------------------------------------------

 NO OUTPUT CONTROL FOR STRESS PERIOD   33   TIME STEP   14
 
 SOLVING FOR HEAD 
                                                   Max.-Head-Change                         Max.-Flux-Residual
  Residual-Control   Outer-Iter.   Inner-Iter.     Column Row Layer    Maximum-Head-Change  Column Row Layer    Maximum-Flux-Residual          L2-NORM 
          0                 1           2             4   13     1       0.1554247368E-01       4   13    1         0.8951637121E+00      0.2442560719E+01
          0                 2           2             4   13     1      -0.1691626291E-01       4   13    1        -0.9944028048E+00      0.2153447441E+01
          0                 3           2             4    7     1      -0.7272317434E-02       4    7    1        -0.3903780910E+00      0.9625414755E+00
          0                 4           2             4    7     1      -0.3499352690E-02       5    6    1        -0.1879385960E+00      0.4603020581E+00
          0                 5           2             4    7     1      -0.4139821128E-02       4    7    1        -0.2222029483E+00      0.5442690692E+00
          0                 6           2             4    7     1       0.2820271615E-03       5    8    1         0.1556305352E-01      0.3812009831E-01
          0                 7           1             4    7     1      -0.1123010852E-04       5    8    1        -0.6370985457E-03      0.1560489079E-02

    ------------------------------------------------
       NWT REQUIRED            7 OUTER ITERATIONS 
       AND A TOTAL OF         13 INNER ITERATIONS.
    ------------------------------------------------

 NO OUTPUT CONTROL FOR STRESS PERIOD   33   TIME STEP   15
 
 SOLVING FOR HEAD 
                                                   Max.-Head-Change                         Max.-Flux-Residual
  Residual-Control   Outer-Iter.   Inner-Iter.     Column Row Layer    Maximum-Head-Change  Column Row Layer    Maximum-Flux-Residual          L2-NORM 
          0                 1           2             4   13     1       0.1556936558E-01       4   13    1         0.8966861609E+00      0.2457275000E+01
          0                 2           2             4   13     1      -0.1685932775E-01       4   13    1        -0.9910800311E+00      0.2133753643E+01
          0                 3           2             4    7     1      -0.7463434870E-02       4    7    1        -0.4006356567E+00      0.9868520820E+00
          0                 4           2             4    7     1      -0.3462579581E-02       5    6    1        -0.1859631589E+00      0.4554633174E+00
          0                 5           2             4    7     1      -0.4196531444E-02       4    7    1        -0.2252467654E+00      0.5517250611E+00
          0                 6           2             4    7     1       0.2858905756E-03       5    8    1         0.1577625857E-01      0.3864230748E-01
          0                 7           1             4    7     1      -0.1138394700E-04       5    8    1        -0.6458263642E-03      0.1581865882E-02

    ------------------------------------------------
       NWT REQUIRED            7 OUTER ITERATIONS 
       AND A TOTAL OF         13 INNER ITERATIONS.
    ------------------------------------------------

 NO OUTPUT CONTROL FOR STRESS PERIOD   33   TIME STEP   16
 
 SOLVING FOR HEAD 
                                                   Max.-Head-Change                         Max.-Flux-Residual
  Residual-Control   Outer-Iter.   Inner-Iter.     Column Row Layer    Maximum-Head-Change  Column Row Layer    Maximum-Flux-Residual          L2-NORM 
          0                 1           2             4   13     1       0.1559443152E-01       4   13    1         0.8981041480E+00      0.2471593767E+01
          0                 2           2             4   13     1      -0.1683405918E-01       4   13    1        -0.9896006088E+00      0.2124165329E+01
          0                 3           2             4    7     1      -0.7550802851E-02       4    7    1        -0.4053244146E+00      0.9979877382E+00
          0                 4           2             4    7     1      -0.3457328290E-02       5    6    1        -0.1856797274E+00      0.4547695401E+00
          0                 5           2             4    7     1      -0.4227841048E-02       4    7    1        -0.2269272086E+00      0.5558414538E+00
          0                 6           2             4    7     1       0.2880235556E-03       5    8    1         0.1589396860E-01      0.3893061508E-01
          0                 7           1             4    7     1      -0.1146888038E-04       5    8    1        -0.6506449754E-03      0.1593668105E-02

    ------------------------------------------------
       NWT REQUIRED            7 OUTER ITERATIONS 
       AND A TOTAL OF         13 INNER ITERATIONS.
    ------------------------------------------------

 NO OUTPUT CONTROL FOR STRESS PERIOD   33   TIME STEP   17
 
 SOLVING FOR HEAD 
                                                   Max.-Head-Change                         Max.-Flux-Residual
  Residual-Control   Outer-Iter.   Inner-Iter.     Column Row Layer    Maximum-Head-Change  Column Row Layer    Maximum-Flux-Residual          L2-NORM 
          0                 1           2             4   13     1       0.1561770410E-01       4   13    1         0.8994197063E+00      0.2485528112E+01
          0                 2           2             4   13     1      -0.1682714102E-01       4   13    1        -0.9891958980E+00      0.2120628093E+01
          0                 3           2             4    7     1      -0.7574751429E-02       4    7    1        -0.4066091018E+00      0.1001024349E+01
          0                 4           2             4    7     1      -0.3471241897E-02       5    6    1        -0.1864250113E+00      0.4565957583E+00
          0                 5           2             4    7     1      -0.4242372994E-02       4    7    1        -0.2277071180E+00      0.5577519817E+00
          0                 6           2             4    7     1       0.2890135507E-03       5    8    1         0.1594860247E-01      0.3906442647E-01
          0                 7           1             4    7     1      -0.1150830117E-04       5    8    1        -0.6528814870E-03      0.1599145811E-02

    ------------------------------------------------
       NWT REQUIRED            7 OUTER ITERATIONS 
       AND A TOTAL OF         13 INNER ITERATIONS.
    ------------------------------------------------

 NO OUTPUT CONTROL FOR STRESS PERIOD   33   TIME STEP   18
 
 SOLVING FOR HEAD 
                                                   Max.-Head-Change                         Max.-Flux-Residual
  Residual-Control   Outer-Iter.   Inner-Iter.     Column Row Layer    Maximum-Head-Change  Column Row Layer    Maximum-Flux-Residual          L2-NORM 
          0                 1           2             4   13     1       0.1563935887E-01       4   13    1         0.9006428722E+00      0.2499106033E+01
          0                 2           2             4   13     1      -0.1681995749E-01       4   13    1        -0.9887756585E+00      0.2117054516E+01
          0                 3           2             4    7     1      -0.7598657747E-02       4    7    1        -0.4078915323E+00      0.1004057685E+01
          0                 4           2             4    7     1      -0.3485169563E-02       5    6    1        -0.1871710630E+00      0.4584238717E+00
          0                 5           2             4    7     1      -0.4256879518E-02       4    7    1        -0.2284856633E+00      0.5596591665E+00
          0                 6           2             4    7     1       0.2900018135E-03       5    8    1         0.1600314072E-01      0.3919800374E-01
          0                 7           1             4    7     1      -0.1154765288E-04       5    8    1        -0.6551141046E-03      0.1604614121E-02

    ------------------------------------------------
       NWT REQUIRED            7 OUTER ITERATIONS 
       AND A TOTAL OF         13 INNER ITERATIONS.
    ------------------------------------------------

 NO OUTPUT CONTROL FOR STRESS PERIOD   33   TIME STEP   19
 
 SOLVING FOR HEAD 
                                                   Max.-Head-Change                         Max.-Flux-Residual
  Residual-Control   Outer-Iter.   Inner-Iter.     Column Row Layer    Maximum-Head-Change  Column Row Layer    Maximum-Flux-Residual          L2-NORM 
          0                 1           2             4   13     1       0.1565951364E-01       4   13    1         0.9017803875E+00      0.2512324866E+01
          0                 2           2             4   13     1      -0.1681254152E-01       4   13    1        -0.9883418435E+00      0.2113449160E+01
          0                 3           2             4    7     1      -0.7622466555E-02       4    7    1        -0.4091687295E+00      0.1007080964E+01
          0                 4           2             4    7     1      -0.3499151805E-02       5    6    1        -0.1879200365E+00      0.4602591607E+00
          0                 5           2             4    7     1      -0.4271313369E-02       4    7    1        -0.2292603080E+00      0.5615567973E+00
          0                 6           2             4    7     1       0.2909851261E-03       5    8    1         0.1605740577E-01      0.3933091180E-01
          0                 7           1             4    7     1      -0.1158680818E-04       5    8    1        -0.6573355381E-03      0.1610054562E-02

    ------------------------------------------------
       NWT REQUIRED            7 OUTER ITERATIONS 
       AND A TOTAL OF         13 INNER ITERATIONS.
    ------------------------------------------------

 NO OUTPUT CONTROL FOR STRESS PERIOD   33   TIME STEP   20
 
 SOLVING FOR HEAD 
                                                   Max.-Head-Change                         Max.-Flux-Residual
  Residual-Control   Outer-Iter.   Inner-Iter.     Column Row Layer    Maximum-Head-Change  Column Row Layer    Maximum-Flux-Residual          L2-NORM 
          0                 1           2             4   13     1       0.1567830769E-01       4   13    1         0.9028403462E+00      0.2525218934E+01
          0                 2           2             4   13     1      -0.1680488809E-01       4   13    1        -0.9878941480E+00      0.2109813422E+01
          0                 3           2             4    7     1      -0.7646334674E-02       4    7    1        -0.4104491179E+00      0.1010114390E+01
          0                 4           2             4    7     1      -0.3513045497E-02       5    6    1        -0.1886642666E+00      0.4620828346E+00
          0                 5           2             4    7     1      -0.4285873348E-02       4    7    1        -0.2300417228E+00      0.5634710104E+00
          0                 6           2             4    7     1       0.2919770302E-03       5    8    1         0.1611214500E-01      0.3946498137E-01
          0                 7           1             4    7     1      -0.1162630472E-04       5    8    1        -0.6595763903E-03      0.1615542985E-02

    ------------------------------------------------
       NWT REQUIRED            7 OUTER ITERATIONS 
       AND A TOTAL OF         13 INNER ITERATIONS.
    ------------------------------------------------

 NO OUTPUT CONTROL FOR STRESS PERIOD   33   TIME STEP   21
 
 SOLVING FOR HEAD 
                                                   Max.-Head-Change                         Max.-Flux-Residual
  Residual-Control   Outer-Iter.   Inner-Iter.     Column Row Layer    Maximum-Head-Change  Column Row Layer    Maximum-Flux-Residual          L2-NORM 
          0                 1           2             4   13     1       0.1569594611E-01       4   13    1         0.9038345426E+00      0.2537789244E+01
          0                 2           2             4   13     1      -0.1679704054E-01       4   13    1        -0.9874351238E+00      0.2106147864E+01
          0                 3           2             4    7     1      -0.7670112967E-02       4    7    1        -0.4117246952E+00      0.1013138239E+01
          0                 4           2             4    7     1      -0.3527040973E-02       5    6    1        -0.1894139699E+00      0.4639199299E+00
          0                 5           2             4    7     1      -0.4300292935E-02       4    7    1        -0.2308156025E+00      0.5653667646E+00
          0                 6           2             4    7     1       0.2929593710E-03       5    8    1         0.1616635632E-01      0.3959775803E-01
          0                 7           1             4    7     1      -0.1166542134E-04       5    8    1        -0.6617956133E-03      0.1620978224E-02

    ------------------------------------------------
       NWT REQUIRED            7 OUTER ITERATIONS 
       AND A TOTAL OF         13 INNER ITERATIONS.
    ------------------------------------------------

 NO OUTPUT CONTROL FOR STRESS PERIOD   33   TIME STEP   22
 
 SOLVING FOR HEAD 
                                                   Max.-Head-Change                         Max.-Flux-Residual
  Residual-Control   Outer-Iter.   Inner-Iter.     Column Row Layer    Maximum-Head-Change  Column Row Layer    Maximum-Flux-Residual          L2-NORM 
          0                 1           2             4   13     1       0.1571240407E-01       4   13    1         0.9047614284E+00      0.2550053067E+01
          0                 2           2             4   13     1      -0.1678897696E-01       4   13    1        -0.9869634609E+00      0.2102456761E+01
          0                 3           2             4    7     1      -0.7693816654E-02       4    7    1        -0.4129962692E+00      0.1016154860E+01
          0                 4           2             4    7     1      -0.3541030566E-02       5    6    1        -0.1901633708E+00      0.4657562678E+00
          0                 5           2             4    7     1      -0.4314712932E-02       4    7    1        -0.2315895044E+00      0.5672625731E+00
          0                 6           2             4    7     1       0.2939417391E-03       5    8    1         0.1622056920E-01      0.3973053846E-01
          0                 7           1             4    7     1      -0.1170453795E-04       5    8    1        -0.6640148840E-03      0.1626413713E-02

    ------------------------------------------------
       NWT REQUIRED            7 OUTER ITERATIONS 
       AND A TOTAL OF         13 INNER ITERATIONS.
    ------------------------------------------------

 NO OUTPUT CONTROL FOR STRESS PERIOD   33   TIME STEP   23
 
 SOLVING FOR HEAD 
                                                   Max.-Head-Change                         Max.-Flux-Residual
  Residual-Control   Outer-Iter.   Inner-Iter.     Column Row Layer    Maximum-Head-Change  Column Row Layer    Maximum-Flux-Residual          L2-NORM 
          0                 1           2             4   13     1       0.1572790904E-01       4   13    1         0.9056342384E+00      0.2562033637E+01
          0                 2           2             4   13     1      -0.1678077298E-01       4   13    1        -0.9864836452E+00      0.2098743429E+01
          0                 3           2             4    7     1      -0.7717567625E-02       4    7    1        -0.4142703888E+00      0.1019179856E+01
          0                 4           2             4    7     1      -0.3554981312E-02       5    6    1        -0.1909106912E+00      0.4675875139E+00
          0                 5           2             4    7     1      -0.4329148969E-02       4    7    1        -0.2323642675E+00      0.5691604898E+00
          0                 6           2             4    7     1       0.2949252001E-03       5    8    1         0.1627484234E-01      0.3986346655E-01
          0                 7           1             4    7     1      -0.1174369854E-04       5    8    1        -0.6662366459E-03      0.1631855300E-02

    ------------------------------------------------
       NWT REQUIRED            7 OUTER ITERATIONS 
       AND A TOTAL OF         13 INNER ITERATIONS.
    ------------------------------------------------

 NO OUTPUT CONTROL FOR STRESS PERIOD   33   TIME STEP   24
 
 SOLVING FOR HEAD 
                                                   Max.-Head-Change                         Max.-Flux-Residual
  Residual-Control   Outer-Iter.   Inner-Iter.     Column Row Layer    Maximum-Head-Change  Column Row Layer    Maximum-Flux-Residual          L2-NORM 
          0                 1           2             5    6     1       0.1579603245E-01       4   13    1         0.9064451678E+00      0.2573724857E+01
          0                 2           2             4   13     1      -0.1677238130E-01       4   13    1        -0.9859928572E+00      0.2095006781E+01
          0                 3           2             4    7     1      -0.7741211255E-02       4    7    1        -0.4155387556E+00      0.1022193224E+01
          0                 4           2             4    7     1      -0.3568961779E-02       5    6    1        -0.1916596132E+00      0.4694227212E+00
          0                 5           2             4    7     1      -0.4343569596E-02       4    7    1        -0.2331382037E+00      0.5710563797E+00
          0                 6           2             4    7     1       0.2959076115E-03       5    8    1         0.1632905749E-01      0.3999625274E-01
          0                 7           1             4    7     1      -0.1178281746E-04       5    8    1        -0.6684560303E-03      0.1637291153E-02

    ------------------------------------------------
       NWT REQUIRED            7 OUTER ITERATIONS 
       AND A TOTAL OF         13 INNER ITERATIONS.
    ------------------------------------------------

 NO OUTPUT CONTROL FOR STRESS PERIOD   33   TIME STEP   25
 
 SOLVING FOR HEAD 
                                                   Max.-Head-Change                         Max.-Flux-Residual
  Residual-Control   Outer-Iter.   Inner-Iter.     Column Row Layer    Maximum-Head-Change  Column Row Layer    Maximum-Flux-Residual          L2-NORM 
          0                 1           2             5    6     1       0.1587478185E-01       4   13    1         0.9072090988E+00      0.2585152927E+01
          0                 2           2             4   13     1      -0.1676381770E-01       4   13    1        -0.9854920207E+00      0.2091250679E+01
          0                 3           2             4    7     1      -0.7764853084E-02       4    7    1        -0.4168070321E+00      0.1025208504E+01
          0                 4           2             4    7     1      -0.3582944590E-02       5    6    1        -0.1924086764E+00      0.4712582530E+00
          0                 5           2             4    7     1      -0.4357918982E-02       4    7    1        -0.2339083164E+00      0.5729429028E+00
          0                 6           2             4    7     1       0.2968851697E-03       5    8    1         0.1638300475E-01      0.4012838282E-01
          0                 7           1             4    7     1      -0.1182174342E-04       5    8    1        -0.6706644413E-03      0.1642699996E-02

    ------------------------------------------------
       NWT REQUIRED            7 OUTER ITERATIONS 
       AND A TOTAL OF         13 INNER ITERATIONS.
    ------------------------------------------------

 NO OUTPUT CONTROL FOR STRESS PERIOD   33   TIME STEP   26
 
 SOLVING FOR HEAD 
                                                   Max.-Head-Change                         Max.-Flux-Residual
  Residual-Control   Outer-Iter.   Inner-Iter.     Column Row Layer    Maximum-Head-Change  Column Row Layer    Maximum-Flux-Residual          L2-NORM 
          0                 1           2             5    6     1       0.1595200937E-01       4   13    1         0.9079262035E+00      0.2596324742E+01
          0                 2           2             4   13     1      -0.1675513906E-01       4   13    1        -0.9849844971E+00      0.2087477471E+01
          0                 3           2             4    7     1      -0.7788445056E-02       4    7    1        -0.4180726434E+00      0.1028219370E+01
          0                 4           2             4    7     1      -0.3596893132E-02       5    6    1        -0.1931559160E+00      0.4730893289E+00
          0                 5           2             4    7     1      -0.4372390696E-02       4    7    1        -0.2346849952E+00      0.5748455078E+00
          0                 6           2             4    7     1       0.2978710607E-03       5    8    1         0.1643741186E-01      0.4026163934E-01
          0                 7           1             4    7     1      -0.1186100049E-04       5    8    1        -0.6728916937E-03      0.1648155855E-02

    ------------------------------------------------
       NWT REQUIRED            7 OUTER ITERATIONS 
       AND A TOTAL OF         13 INNER ITERATIONS.
    ------------------------------------------------

 NO OUTPUT CONTROL FOR STRESS PERIOD   33   TIME STEP   27
 
 SOLVING FOR HEAD 
                                                   Max.-Head-Change                         Max.-Flux-Residual
  Residual-Control   Outer-Iter.   Inner-Iter.     Column Row Layer    Maximum-Head-Change  Column Row Layer    Maximum-Flux-Residual          L2-NORM 
          0                 1           2             5    6     1       0.1602746891E-01       4   13    1         0.9085998263E+00      0.2607235467E+01
          0                 2           2             4   13     1      -0.1674641472E-01       4   13    1        -0.9844743847E+00      0.2083684318E+01
          0                 3           2             4    7     1      -0.7812003146E-02       4    7    1        -0.4193364406E+00      0.1031228367E+01
          0                 4           2             4    7     1      -0.3610905120E-02       5    6    1        -0.1939065699E+00      0.4749287725E+00
          0                 5           2             4    7     1      -0.4386669180E-02       4    7    1        -0.2354513028E+00      0.5767227074E+00
          0                 6           2             4    7     1       0.2988437888E-03       5    8    1         0.1649109248E-01      0.4039311640E-01
          0                 7           1             4    7     1      -0.1189973418E-04       5    8    1        -0.6750891916E-03      0.1653537145E-02

    ------------------------------------------------
       NWT REQUIRED            7 OUTER ITERATIONS 
       AND A TOTAL OF         13 INNER ITERATIONS.
    ------------------------------------------------

 NO OUTPUT CONTROL FOR STRESS PERIOD   33   TIME STEP   28
 
 SOLVING FOR HEAD 
                                                   Max.-Head-Change                         Max.-Flux-Residual
  Residual-Control   Outer-Iter.   Inner-Iter.     Column Row Layer    Maximum-Head-Change  Column Row Layer    Maximum-Flux-Residual          L2-NORM 
          0                 1           2             5    6     1       0.1610151918E-01       4   13    1         0.9092329538E+00      0.2617917344E+01
          0                 2           2             4   13     1      -0.1673741158E-01       4   13    1        -0.9839478823E+00      0.2079881601E+01
          0                 3           2             4    7     1      -0.7835507590E-02       4    7    1        -0.4205973679E+00      0.1034231963E+01
          0                 4           2             4    7     1      -0.3624862005E-02       5    6    1        -0.1946542835E+00      0.4767609880E+00
          0                 5           2             4    7     1      -0.4401053682E-02       4    7    1        -0.2362233011E+00      0.5786138448E+00
          0                 6           2             4    7     1       0.2998237387E-03       5    8    1         0.1654517161E-01      0.4052556969E-01
          0                 7           1             4    7     1      -0.1193875477E-04       5    8    1        -0.6773030100E-03      0.1658959384E-02

    ------------------------------------------------
       NWT REQUIRED            7 OUTER ITERATIONS 
       AND A TOTAL OF         13 INNER ITERATIONS.
    ------------------------------------------------

 NO OUTPUT CONTROL FOR STRESS PERIOD   33   TIME STEP   29
 
 SOLVING FOR HEAD 
                                                   Max.-Head-Change                         Max.-Flux-Residual
  Residual-Control   Outer-Iter.   Inner-Iter.     Column Row Layer    Maximum-Head-Change  Column Row Layer    Maximum-Flux-Residual          L2-NORM 
          0                 1           2             5    6     1       0.1617391316E-01       4   13    1         0.9098288155E+00      0.2628352069E+01
          0                 2           2             4   13     1      -0.1672837576E-01       4   13    1        -0.9834195631E+00      0.2076058869E+01
          0                 3           2             4    7     1      -0.7858976583E-02       4    7    1        -0.4218563973E+00      0.1037233177E+01
          0                 4           2             4    7     1      -0.3638820258E-02       5    6    1        -0.1954020805E+00      0.4785934191E+00
          0                 5           2             4    7     1      -0.4415500272E-02       4    7    1        -0.2369986322E+00      0.5805131446E+00
          0                 6           2             4    7     1       0.3008079192E-03       5    8    1         0.1659948409E-01      0.4065859469E-01
          0                 7           1             4    7     1      -0.1197794415E-04       5    8    1        -0.6795263657E-03      0.1664405636E-02

    ------------------------------------------------
       NWT REQUIRED            7 OUTER ITERATIONS 
       AND A TOTAL OF         13 INNER ITERATIONS.
    ------------------------------------------------

 NO OUTPUT CONTROL FOR STRESS PERIOD   33   TIME STEP   30



 STREAM LISTING     PERIOD     33   STEP       30

 LAYER ROW COL. STREAM  RCH.  FLOW INTO     FLOW TO   FLOW OUT OF   OVRLND.     DIRECT     STREAM       STREAM     STREAM     STREAM   STREAMBED  STREAMBED
                SEG.NO.  NO.  STRM. RCH.    AQUIFER    STRM. RCH.    RUNOFF     PRECIP       ET          HEAD       DEPTH      WIDTH   CONDCTNC.   GRADIENT

   1    1    1     1     1    4.5749E+01  3.2289E-01   4.5426E+01  0.000E+00  0.000E+00  0.000E+00  1.09442E+03  1.372E+00  1.641E+01  7.386E-02  1.457E+00
   1    2    2     1     2    4.5426E+01  5.0022E-01   4.4925E+01  0.000E+00  0.000E+00  0.000E+00  1.08943E+03  1.369E+00  1.636E+01  1.145E-01  1.456E+00
   1    3    3     1     3    4.4925E+01  4.2678E-01   4.4499E+01  0.000E+00  0.000E+00  0.000E+00  1.08378E+03  1.366E+00  1.629E+01  9.776E-02  1.455E+00
   1    3    4     1     4    4.4499E+01  3.9314E-01   4.4106E+01  0.000E+00  0.000E+00  0.000E+00  1.07877E+03  1.363E+00  1.624E+01  9.011E-02  1.454E+00
   1    4    5     2     1    4.2106E+01  3.6245E-01   4.1743E+01  0.000E+00  0.000E+00  0.000E+00  1.07358E+03  1.647E+00  1.200E+01  7.800E-02  1.549E+00
   1    5    6     2     2    4.1743E+01  2.7835E-01   4.1465E+01  0.000E+00  0.000E+00  0.000E+00  1.06815E+03  1.639E+00  1.200E+01  6.000E-02  1.546E+00
   1    6    6     2     3    4.1465E+01  2.7796E-01   4.1187E+01  0.000E+00  0.000E+00  0.000E+00  1.06343E+03  1.633E+00  1.200E+01  6.000E-02  1.544E+00
   1    7    6     2     4    4.1187E+01  2.7756E-01   4.0909E+01  0.000E+00  0.000E+00  0.000E+00  1.05870E+03  1.626E+00  1.200E+01  6.000E-02  1.542E+00
   1    8    6     2     5    4.0909E+01  2.7716E-01   4.0632E+01  0.000E+00  0.000E+00  0.000E+00  1.05398E+03  1.619E+00  1.200E+01  6.000E-02  1.540E+00
   1    3    5     3     1    2.0000E+00  2.8252E-01   1.7175E+00  0.000E+00  0.000E+00  0.000E+00  1.07555E+03  1.909E+00  9.636E+00  7.227E-02  1.955E+00
   1    3    6     3     2    1.7175E+00  2.4905E-01   1.4684E+00  0.000E+00  0.000E+00  0.000E+00  1.07264E+03  1.727E+00  8.909E+00  6.682E-02  1.864E+00
   1    3    7     3     3    1.4684E+00  1.9718E-01   1.2712E+00  0.000E+00  0.000E+00  0.000E+00  1.06987E+03  1.555E+00  8.218E+00  5.547E-02  1.777E+00
   1    4    8     3     4    1.2712E+00  2.2567E-01   1.0456E+00  0.000E+00  0.000E+00  0.000E+00  1.06682E+03  1.364E+00  7.455E+00  6.709E-02  1.682E+00
   1    5    8     3     5    1.0456E+00  1.5790E-01   8.8768E-01  0.000E+00  0.000E+00  0.000E+00  1.06362E+03  1.164E+00  6.655E+00  4.991E-02  1.582E+00
   1    6    8     3     6    8.8768E-01  5.5980E-02   8.3170E-01  0.000E+00  0.000E+00  0.000E+00  1.06158E+03  1.036E+00  6.145E+00  1.844E-02  1.518E+00
   1    5   10     4     1    1.0000E+01  9.0919E-02   9.9091E+00  0.000E+00  0.000E+00  0.000E+00  1.07836E+03  6.368E-01  1.000E+01  2.500E-02  1.212E+00
   1    5    9     4     2    9.9091E+00  1.8158E-01   9.7275E+00  0.000E+00  0.000E+00  0.000E+00  1.07154E+03  6.315E-01  1.000E+01  5.000E-02  1.211E+00
   1    6    8     4     3    9.7275E+00  1.2689E-01   9.6006E+00  0.000E+00  0.000E+00  0.000E+00  1.06381E+03  6.256E-01  1.000E+01  3.500E-02  1.209E+00
   1    6    8     5     1    1.0432E+01  2.2686E-01   1.0205E+01  0.000E+00  0.000E+00  0.000E+00  1.05868E+03  6.790E-01  1.542E+01  6.166E-02  1.226E+00
   1    7    7     5     2    1.0205E+01  2.7894E-01   9.9265E+00  0.000E+00  0.000E+00  0.000E+00  1.05417E+03  6.732E-01  1.519E+01  7.594E-02  1.224E+00
   1    8    7     5     3    9.9265E+00  1.9221E-01   9.7343E+00  0.000E+00  0.000E+00  0.000E+00  1.04992E+03  6.676E-01  1.497E+01  5.241E-02  1.223E+00
   1    8    6     5     4    9.7343E+00  1.3577E-01   9.5985E+00  0.000E+00  0.000E+00  0.000E+00  1.04691E+03  6.637E-01  1.482E+01  3.706E-02  1.221E+00
   1    9    6     6     1    9.5985E+00  2.2097E-01   9.3776E+00  0.000E+00  0.000E+00  0.000E+00  1.04341E+03  6.828E-01  1.200E+01  6.000E-02  1.228E+00
   1   10    7     6     2    9.3776E+00  2.2039E-01   9.1572E+00  0.000E+00  0.000E+00  0.000E+00  1.03885E+03  6.732E-01  1.200E+01  6.000E-02  1.224E+00
   1   11    7     6     3    9.1572E+00  2.1981E-01   8.9374E+00  0.000E+00  0.000E+00  0.000E+00  1.03430E+03  6.636E-01  1.200E+01  6.000E-02  1.221E+00
   1   12    7     6     4    8.9374E+00  2.1923E-01   8.7181E+00  0.000E+00  0.000E+00  0.000E+00  1.02974E+03  6.539E-01  1.200E+01  6.000E-02  1.218E+00
   1   13    7     6     5    8.7181E+00 -1.1179E-01   8.8299E+00  0.000E+00  0.000E+00  0.000E+00  1.02656E+03  6.515E-01  1.200E+01  2.400E-01 -1.553E-01
   1   14    9     7     1    1.5000E+02  1.3396E+00   1.4866E+02  0.000E+00  0.000E+00  0.000E+00  1.03987E+03  2.288E+00  5.529E+01  5.593E-01  7.984E-01
   1   13    8     7     2    1.4866E+02  1.8409E+00   1.4682E+02  0.000E+00  0.000E+00  0.000E+00  1.03478E+03  2.279E+00  5.526E+01  6.148E-01  9.982E-01
   1   13    7     7     3    1.4682E+02  1.4874E+00   1.4533E+02  0.000E+00  0.000E+00  0.000E+00  1.02969E+03  2.270E+00  5.522E+01  5.584E-01  8.878E-01
   1   13    6     8     1    1.5416E+02  8.4272E-01   1.5332E+02  0.000E+00  0.000E+00  0.000E+00  1.02472E+03  2.843E+00  4.122E+01  4.201E-01  6.687E-01
   1   13    5     8     2    1.5332E+02  1.1763E-01   1.5320E+02  0.000E+00  0.000E+00  0.000E+00  1.01846E+03  2.840E+00  4.117E+01  4.196E-01  9.345E-02
   1   13    4     8     3    1.5320E+02 -2.6017E+00   1.5580E+02  0.000E+00  0.000E+00  0.000E+00  1.01222E+03  2.848E+00  4.130E+01  4.209E+00 -2.061E-01
   1   13    3     8     4    1.5580E+02 -3.7223E+00   1.5953E+02  0.000E+00  0.000E+00  0.000E+00  1.00599E+03  2.870E+00  4.161E+01  4.241E+00 -2.926E-01
   1   13    2     8     5    1.5953E+02 -2.6105E+00   1.6214E+02  0.000E+00  0.000E+00  0.000E+00  9.99766E+02  2.891E+00  4.193E+01  4.272E+00 -2.037E-01
   1   13    1     8     6    1.6214E+02 -2.0103E+00   1.6415E+02  0.000E+00  0.000E+00  0.000E+00  9.94782E+02  2.907E+00  4.215E+01  2.577E+00 -2.600E-01
   1    8    6     9     1    4.0632E+01  0.0000E+00   4.0632E+01  0.000E+00  0.000E+00  0.000E+00  1.08401E+03  5.255E+00  4.000E+00  0.000E+00  2.752E+00
   1    8    5     9     2    4.0632E+01  0.0000E+00   4.0632E+01  0.000E+00  0.000E+00  0.000E+00  1.08351E+03  5.255E+00  4.000E+00  0.000E+00  2.752E+00





UNSATURATED ZONE PACKAGE VOLUMETRIC BUDGET FOR  TIME STEP    30 STRESS PERIOD   33
  ------------------------------------------------------------------------------



     CUMULATIVE VOLUMES      L**3       RATES FOR THIS TIME STEP      L**3/T
     ------------------                 ------------------------

           IN:                                      IN:
           ---                                      ---
        INFILTRATION =  1534652299.4231          INFILTRATION =          52.9928

          OUT:                                     OUT:
          ----                                     ----
              UZF ET =  1437994787.4849                UZF ET =          52.8575
        UZF RECHARGE =     1188452.4670          UZF RECHARGE =       0.0000E+00

            IN - OUT =    95469059.4712              IN - OUT =           0.1352

          STORAGE:                                 STORAGE:
          --------                                 --------
      STORAGE CHANGE =    95470022.7495        STORAGE CHANGE =           0.1352

 PERCENT DISCREPANCY IS DIFFERENCE BETWEEN IN-OUT MINUS CHANGE IN STORAGE
 DIVIDED BY THE AVERAGE OF IN AND OUT TIMES 100

 PERCENT DISCREPANCY =          -0.00     PERCENT DISCREPANCY =           0.00






1
  VOLUMETRIC BUDGET FOR ENTIRE MODEL AT END OF TIME STEP   30, STRESS PERIOD  33
  ------------------------------------------------------------------------------

     CUMULATIVE VOLUMES      L**3       RATES FOR THIS TIME STEP      L**3/T
     ------------------                 ------------------------

           IN:                                      IN:
           ---                                      ---
               AG WELLS  =   219671824.0000                 AG WELLS  =           7.9524
      DIVERSION SEGMENTS =   943955392.0000        DIVERSION SEGMENTS =          40.6321
           GW IRRIGATION =           0.0000             GW IRRIGATION =           0.0000
           SW IRRIGATION =           0.0000             SW IRRIGATION =           0.0000
        SYSTEM LOSSES GW =           0.0000          SYSTEM LOSSES GW =           0.0000
        SYSTEM LOSSES SW =           0.0000          SYSTEM LOSSES SW =           0.0000

                TOTAL IN =  1163627264.0000                  TOTAL IN =          48.5845

          OUT:                                     OUT:
          ----                                     ----
               AG WELLS  =           0.0000                 AG WELLS  =           0.0000
      DIVERSION SEGMENTS =           0.0000        DIVERSION SEGMENTS =           0.0000
           GW IRRIGATION =   219671824.0000             GW IRRIGATION =           7.9524
           SW IRRIGATION =   943974528.0000             SW IRRIGATION =          40.6329
        SYSTEM LOSSES GW =           0.0000          SYSTEM LOSSES GW =           0.0000
        SYSTEM LOSSES SW =           0.0000          SYSTEM LOSSES SW =           0.0000

               TOTAL OUT =  1163646336.0000                 TOTAL OUT =          48.5853

                IN - OUT =      -19072.0000                  IN - OUT =      -8.1253E-04

     PERCENT DISCREPANCY =          -0.00         PERCENT DISCREPANCY =          -0.00



1
  VOLUMETRIC BUDGET FOR ENTIRE MODEL AT END OF TIME STEP   30, STRESS PERIOD  33
  ------------------------------------------------------------------------------

     CUMULATIVE VOLUMES      L**3       RATES FOR THIS TIME STEP      L**3/T
     ------------------                 ------------------------

           IN:                                      IN:
           ---                                      ---
             STORAGE     =   354944288.0000               STORAGE     =           7.4384
       CONSTANT HEAD     =           0.0000         CONSTANT HEAD     =           0.0000
     HEAD DEP BOUNDS     =    24079218.0000       HEAD DEP BOUNDS     =           0.2860
      STREAM LEAKAGE     =  1007083776.0000        STREAM LEAKAGE     =          12.0266
        UZF RECHARGE     =     1188452.5000          UZF RECHARGE     =           0.0000
               GW ET     =           0.0000                 GW ET     =           0.0000
     SURFACE LEAKAGE     =           0.0000       SURFACE LEAKAGE     =           0.0000
           AG WELLS      =           0.0000             AG WELLS      =           0.0000

                TOTAL IN =  1387295744.0000                  TOTAL IN =          19.7511

          OUT:                                     OUT:
          ----                                     ----
             STORAGE     =   225811776.0000               STORAGE     =           0.4547
       CONSTANT HEAD     =           0.0000         CONSTANT HEAD     =           0.0000
     HEAD DEP BOUNDS     =    24497692.0000       HEAD DEP BOUNDS     =           0.2874
      STREAM LEAKAGE     =   914056704.0000        STREAM LEAKAGE     =          11.0566
        UZF RECHARGE     =           0.0000          UZF RECHARGE     =           0.0000
               GW ET     =     3265349.0000                 GW ET     =           0.0000
     SURFACE LEAKAGE     =           0.0000       SURFACE LEAKAGE     =           0.0000
           AG WELLS      =   219671824.0000             AG WELLS      =           7.9524

               TOTAL OUT =  1387303424.0000                 TOTAL OUT =          19.7511

                IN - OUT =       -7680.0000                  IN - OUT =       5.5313E-05

     PERCENT DISCREPANCY =          -0.00         PERCENT DISCREPANCY =           0.00






         TIME SUMMARY AT END OF TIME STEP   30 IN STRESS PERIOD   33
                    SECONDS     MINUTES      HOURS       DAYS        YEARS
                    -----------------------------------------------------------
   TIME STEP LENGTH  87667.      1461.1      24.352      1.0147     2.77799E-03
 STRESS PERIOD TIME 2.63000E+06  43833.      730.56      30.440     8.33397E-02
         TOTAL TIME 8.42463E+07 1.40410E+06  23402.      975.07      2.6696    
1
1
                            STRESS PERIOD NO.   34, LENGTH =   2630000.    
                            -----------------------------------------------

                              NUMBER OF TIME STEPS =    30

                               MULTIPLIER FOR DELT =     1.000

                            INITIAL TIME STEP SIZE =   87666.66    

 REUSING NON-PARAMETER GHB CELLS FROM LAST STRESS PERIOD

      2 GHB CELLS

 REUSING STREAM SEGMENT DATA FROM LAST STRESS PERIOD



            AREAL INFILTRATION RATE
 READING ON UNIT   19 WITH FORMAT: (10F4.0)            

            1           2           3           4           5           6           7           8           9          10
 ........................................................................................................................
   1   1.2000E-09   0.000       0.000       0.000       0.000       0.000       0.000       0.000       0.000       0.000    
   2   2.1000E-09  2.0000E-09  8.0000E-10  8.5000E-09   0.000       0.000       0.000       0.000       0.000       0.000    
   3   5.0000E-10  1.1000E-09  8.8000E-09  5.5000E-09   0.000       0.000       0.000       0.000       0.000       0.000    
   4   8.5000E-09  1.1000E-09  1.1000E-09  1.1000E-09  2.0000E-09   0.000       0.000       0.000       0.000       0.000    
   5   8.5000E-09  1.1000E-09  1.1000E-09  1.1000E-09  1.1000E-09   0.000       0.000       0.000       0.000       0.000    
   6   8.5000E-09  5.2000E-09  2.1000E-09  1.1000E-09  1.5000E-09   0.000       0.000       0.000       0.000       0.000    
   7   8.5000E-09  5.2000E-09  2.1000E-09  1.2000E-09  2.0000E-09   0.000       0.000       0.000       0.000       0.000    
   8   5.0000E-10  5.2000E-09  2.1000E-09  1.2000E-09  5.0000E-09   0.000       0.000       0.000       0.000       0.000    
   9   5.0000E-10  5.2000E-09  2.1000E-09  1.2000E-09  5.0000E-09   0.000       0.000       0.000       0.000       0.000    
  10   5.0000E-10  5.2000E-09  2.1000E-09  1.2000E-09  5.8000E-09   0.000       0.000       0.000       0.000       0.000    
  11   1.0000E-10  1.1000E-09  1.1000E-09  1.2000E-09  5.0000E-09   0.000       0.000       0.000       0.000       0.000    
  12   1.1000E-09  1.1000E-09  1.1000E-09  1.1000E-09  2.0000E-09   0.000       0.000       0.000       0.000       0.000    
  13   1.1000E-09  2.2000E-09  2.2000E-09  2.1000E-09  1.0000E-09   0.000       0.000       0.000       0.000       0.000    
  14   2.0000E-10  5.5000E-09  5.5000E-09  5.2000E-09  1.0000E-09   0.000       0.000       0.000       0.000       0.000    
  15    0.000      8.8000E-09  8.8000E-09   0.000       0.000       0.000       0.000       0.000       0.000       0.000    

                  ET RATE =  7.500000E-08

 USING ET EXTINCTION DEPTH FROM PREVIOUS STRESS PERIOD. CURRENT PERIOD IS:      34

 USING EXTINCTION WATER CONTENT FROM PREVIOUS STRESS PERIOD. CURRENT PERIOD IS:      34

 USING AIR ENTRY PRESSURE FROM PREVIOUS STRESS PERIOD. CURRENT PERIOD IS:      34

 USING ROOT PRESSURE HEAD FROM PREVIOUS STRESS PERIOD. CURRENT PERIOD IS:      34

 USING ROOT ACTIVITY FROM PREVIOUS STRESS PERIOD. CURRENT PERIOD IS:      34

 PROCESSING AG STRESS PERIOD DATA

 READING AG STRESS PERIOD DATA

 READING IRRIGATION SEGMENT

 READING IRRIGATION WELL

 READING SUPPLEMENTAL WELL

 END PROCESSING AG STRESS PERIOD DATA OPTIONS
 
 SOLVING FOR HEAD 
                                                   Max.-Head-Change                         Max.-Flux-Residual
  Residual-Control   Outer-Iter.   Inner-Iter.     Column Row Layer    Maximum-Head-Change  Column Row Layer    Maximum-Flux-Residual          L2-NORM 
          0                 1           2             5    6     1       0.1624501535E-01       4   13    1         0.9103897605E+00      0.2638575364E+01
          0                 2           2             4   13     1      -0.4374924600E-02       4   13    1        -0.2584935110E+00      0.5238286508E+00
          0                 3           2             2   13     1      -0.4806466804E-03       4   13    1        -0.2821978625E-01      0.5364607053E-01
          0                 4           2             4   13     1      -0.3248755278E-03       4   13    1        -0.1917838242E-01      0.3335491091E-01
          0                 5           1             4   13     1      -0.1110761636E-03       4   13    1        -0.6556351385E-02      0.1145659332E-01
          0                 6           2             4   13     1      -0.1763566320E-03       4   13    1        -0.1040928237E-01      0.1810729558E-01
          0                 7           1             4   13     1       0.1186543868E-04       4   13    1         0.7201252884E-03      0.1218545277E-02

    ------------------------------------------------
       NWT REQUIRED            7 OUTER ITERATIONS 
       AND A TOTAL OF         12 INNER ITERATIONS.
    ------------------------------------------------

 NO OUTPUT CONTROL FOR STRESS PERIOD   34   TIME STEP    1
 
 SOLVING FOR HEAD 
                                                   Max.-Head-Change                         Max.-Flux-Residual
  Residual-Control   Outer-Iter.   Inner-Iter.     Column Row Layer    Maximum-Head-Change  Column Row Layer    Maximum-Flux-Residual          L2-NORM 
          0                 1           2             5    6     1       0.1563232911E-01       5    6    1         0.8442958760E+00      0.2469811080E+01
          0                 2           2             4   13     1      -0.4216891140E-02       4   13    1        -0.2490336009E+00      0.4766136863E+00
          0                 3           2             4   13     1      -0.4911016511E-03       4   13    1        -0.2897519007E-01      0.5336742714E-01
          0                 4           2             4   13     1      -0.3243568988E-03       4   13    1        -0.1914109200E-01      0.3330849054E-01
          0                 5           1             4   13     1      -0.1071999758E-03       4   13    1        -0.6325418545E-02      0.1105792576E-01
          0                 6           2             4   13     1      -0.1726224407E-03       4   13    1        -0.1018526250E-01      0.1772607215E-01
          0                 7           1             4   13     1       0.1160460081E-04       4   13    1         0.7039452194E-03      0.1193220627E-02

    ------------------------------------------------
       NWT REQUIRED            7 OUTER ITERATIONS 
       AND A TOTAL OF         12 INNER ITERATIONS.
    ------------------------------------------------

 NO OUTPUT CONTROL FOR STRESS PERIOD   34   TIME STEP    2
 
 SOLVING FOR HEAD 
                                                   Max.-Head-Change                         Max.-Flux-Residual
  Residual-Control   Outer-Iter.   Inner-Iter.     Column Row Layer    Maximum-Head-Change  Column Row Layer    Maximum-Flux-Residual          L2-NORM 
          0                 1           2             5    6     1       0.1505144205E-01       5    6    1         0.8124458005E+00      0.2227363704E+01
          0                 2           2             4   13     1      -0.3798058025E-02       4   13    1        -0.2240300013E+00      0.4374066810E+00
          0                 3           2             4   13     1      -0.5117276685E-03       4   13    1        -0.3016227342E-01      0.5503576823E-01
          0                 4           2             4   13     1      -0.3238738111E-03       4   13    1        -0.1909129268E-01      0.3326280546E-01
          0                 5           1             4   13     1      -0.1024962371E-03       4   13    1        -0.6041228364E-02      0.1056729281E-01
          0                 6           2             4   13     1      -0.1678857233E-03       4   13    1        -0.9894835198E-02      0.1723396673E-01
          0                 7           1             4   13     1       0.1126536673E-04       4   13    1         0.6825924474E-03      0.1160723554E-02

    ------------------------------------------------
       NWT REQUIRED            7 OUTER ITERATIONS 
       AND A TOTAL OF         12 INNER ITERATIONS.
    ------------------------------------------------

 NO OUTPUT CONTROL FOR STRESS PERIOD   34   TIME STEP    3
 
 SOLVING FOR HEAD 
                                                   Max.-Head-Change                         Max.-Flux-Residual
  Residual-Control   Outer-Iter.   Inner-Iter.     Column Row Layer    Maximum-Head-Change  Column Row Layer    Maximum-Flux-Residual          L2-NORM 
          0                 1           2             5    6     1       0.1450389619E-01       5    6    1         0.7822776007E+00      0.2157150583E+01
          0                 2           2             4   13     1      -0.3744000420E-02       4   13    1        -0.2208265325E+00      0.4306467551E+00
          0                 3           2             4   13     1      -0.5149958520E-03       4   13    1        -0.3035614742E-01      0.5520177376E-01
          0                 4           2             4   13     1      -0.3286395770E-03       4   13    1        -0.1937205195E-01      0.3376039518E-01
          0                 5           1             4   13     1      -0.9921278502E-04       4   13    1        -0.5847676005E-02      0.1023241113E-01

    ------------------------------------------------
       NWT REQUIRED            5 OUTER ITERATIONS 
       AND A TOTAL OF          9 INNER ITERATIONS.
    ------------------------------------------------

 NO OUTPUT CONTROL FOR STRESS PERIOD   34   TIME STEP    4
 
 SOLVING FOR HEAD 
                                                   Max.-Head-Change                         Max.-Flux-Residual
  Residual-Control   Outer-Iter.   Inner-Iter.     Column Row Layer    Maximum-Head-Change  Column Row Layer    Maximum-Flux-Residual          L2-NORM 
          0                 1           2             5    6     1       0.1398678052E-01       5    6    1         0.7538049959E+00      0.2090808001E+01
          0                 2           2             4   13     1      -0.3693180074E-02       4   13    1        -0.2178158369E+00      0.4242334246E+00
          0                 3           2             4   13     1      -0.5177536622E-03       4   13    1        -0.3051980146E-01      0.5533281426E-01
          0                 4           2             4   13     1      -0.3335960166E-03       4   13    1        -0.1966405978E-01      0.3427619022E-01
          0                 5           1             4   13     1      -0.9624746050E-04       4   13    1        -0.5672887106E-02      0.9930047783E-02

    ------------------------------------------------
       NWT REQUIRED            5 OUTER ITERATIONS 
       AND A TOTAL OF          9 INNER ITERATIONS.
    ------------------------------------------------

 NO OUTPUT CONTROL FOR STRESS PERIOD   34   TIME STEP    5
 
 SOLVING FOR HEAD 
                                                   Max.-Head-Change                         Max.-Flux-Residual
  Residual-Control   Outer-Iter.   Inner-Iter.     Column Row Layer    Maximum-Head-Change  Column Row Layer    Maximum-Flux-Residual          L2-NORM 
          0                 1           2             5    6     1       0.1349829743E-01       5    6    1         0.7269267242E+00      0.2028605445E+01
          0                 2           2             4   13     1      -0.3647011787E-02       4   13    1        -0.2150817279E+00      0.4182656270E+00
          0                 3           2             4   13     1      -0.5217748597E-03       4   13    1        -0.3075777341E-01      0.5560540595E-01
          0                 4           2             4   13     1      -0.3358572595E-03       4   13    1        -0.1979724341E-01      0.3451314414E-01
          0                 5           1             4   13     1      -0.9418319210E-04       4   13    1        -0.5551201534E-02      0.9719993064E-02

    ------------------------------------------------
       NWT REQUIRED            5 OUTER ITERATIONS 
       AND A TOTAL OF          9 INNER ITERATIONS.
    ------------------------------------------------

 NO OUTPUT CONTROL FOR STRESS PERIOD   34   TIME STEP    6
 
 SOLVING FOR HEAD 
                                                   Max.-Head-Change                         Max.-Flux-Residual
  Residual-Control   Outer-Iter.   Inner-Iter.     Column Row Layer    Maximum-Head-Change  Column Row Layer    Maximum-Flux-Residual          L2-NORM 
          0                 1           2             5    7     1       0.1317342080E-01       5    6    1         0.7015330276E+00      0.1970206355E+01
          0                 2           2             4   13     1      -0.3608237258E-02       4   13    1        -0.2127852994E+00      0.4130048641E+00
          0                 3           2             4   13     1      -0.5235577304E-03       4   13    1        -0.3086363108E-01      0.5566966788E-01
          0                 4           2             4   13     1      -0.3358508037E-03       4   13    1        -0.1979677450E-01      0.3451712633E-01
          0                 5           1             4   13     1      -0.9289193558E-04       4   13    1        -0.5475085351E-02      0.9587538215E-02

    ------------------------------------------------
       NWT REQUIRED            5 OUTER ITERATIONS 
       AND A TOTAL OF          9 INNER ITERATIONS.
    ------------------------------------------------

 NO OUTPUT CONTROL FOR STRESS PERIOD   34   TIME STEP    7
 
 SOLVING FOR HEAD 
                                                   Max.-Head-Change                         Max.-Flux-Residual
  Residual-Control   Outer-Iter.   Inner-Iter.     Column Row Layer    Maximum-Head-Change  Column Row Layer    Maximum-Flux-Residual          L2-NORM 
          0                 1           2             5    7     1       0.1291747834E-01       5    7    1         0.6846517915E+00      0.1915294856E+01
          0                 2           2             4   13     1      -0.3571170417E-02       4   13    1        -0.2105911718E+00      0.4079417586E+00
          0                 3           2             4   13     1      -0.5270463838E-03       4   13    1        -0.3107014009E-01      0.5591661666E-01
          0                 4           2             4   13     1      -0.3357843421E-03       4   13    1        -0.1979286479E-01      0.3451267261E-01
          0                 5           1             4   13     1      -0.9187217636E-04       4   13    1        -0.5414924001E-02      0.9482422948E-02

    ------------------------------------------------
       NWT REQUIRED            5 OUTER ITERATIONS 
       AND A TOTAL OF          9 INNER ITERATIONS.
    ------------------------------------------------

 NO OUTPUT CONTROL FOR STRESS PERIOD   34   TIME STEP    8
 
 SOLVING FOR HEAD 
                                                   Max.-Head-Change                         Max.-Flux-Residual
  Residual-Control   Outer-Iter.   Inner-Iter.     Column Row Layer    Maximum-Head-Change  Column Row Layer    Maximum-Flux-Residual          L2-NORM 
          0                 1           2             4    7     1       0.1272274333E-01       5    7    1         0.6713648592E+00      0.1863588813E+01
          0                 2           2             4   13     1      -0.3527809175E-02       4   13    1        -0.2080266245E+00      0.4023271634E+00
          0                 3           2             4   13     1      -0.5400456733E-03       4   13    1        -0.3183717303E-01      0.5712587806E-01
          0                 4           2             4   13     1      -0.3355160054E-03       4   13    1        -0.1977700180E-01      0.3448879019E-01
          0                 5           1             4   13     1      -0.9106574294E-04       4   13    1        -0.5367451675E-02      0.9400626383E-02

    ------------------------------------------------
       NWT REQUIRED            5 OUTER ITERATIONS 
       AND A TOTAL OF          9 INNER ITERATIONS.
    ------------------------------------------------

 NO OUTPUT CONTROL FOR STRESS PERIOD   34   TIME STEP    9
 
 SOLVING FOR HEAD 
                                                   Max.-Head-Change                         Max.-Flux-Residual
  Residual-Control   Outer-Iter.   Inner-Iter.     Column Row Layer    Maximum-Head-Change  Column Row Layer    Maximum-Flux-Residual          L2-NORM 
          0                 1           2             4    7     1       0.1263438645E-01       4    7    1         0.6610684804E+00      0.1814821951E+01
          0                 2           2             4   13     1      -0.3501892563E-02       4   13    1        -0.2064956052E+00      0.3983469306E+00
          0                 3           2             4   13     1      -0.5381604032E-03       4   13    1        -0.3172625320E-01      0.5685788822E-01
          0                 4           2             4   13     1      -0.3353325758E-03       4   13    1        -0.1976614198E-01      0.3447106895E-01
          0                 5           1             4   13     1      -0.9055424346E-04       4   13    1        -0.5337337112E-02      0.9346431348E-02

    ------------------------------------------------
       NWT REQUIRED            5 OUTER ITERATIONS 
       AND A TOTAL OF          9 INNER ITERATIONS.
    ------------------------------------------------

 NO OUTPUT CONTROL FOR STRESS PERIOD   34   TIME STEP   10
 
 SOLVING FOR HEAD 
                                                   Max.-Head-Change                         Max.-Flux-Residual
  Residual-Control   Outer-Iter.   Inner-Iter.     Column Row Layer    Maximum-Head-Change  Column Row Layer    Maximum-Flux-Residual          L2-NORM 
          0                 1           2             4    7     1       0.1253987393E-01       4    7    1         0.6564724944E+00      0.1768766825E+01
          0                 2           2             4   13     1      -0.3474158060E-02       4   13    1        -0.2048559750E+00      0.3942517111E+00
          0                 3           2             4   13     1      -0.5406445985E-03       4   13    1        -0.3187307245E-01      0.5703411388E-01
          0                 4           2             4   13     1      -0.3350065050E-03       4   13    1        -0.1974689128E-01      0.3443859777E-01
          0                 5           1             4   13     1      -0.9026411998E-04       4   13    1        -0.5320250211E-02      0.9314731142E-02

    ------------------------------------------------
       NWT REQUIRED            5 OUTER ITERATIONS 
       AND A TOTAL OF          9 INNER ITERATIONS.
    ------------------------------------------------

 NO OUTPUT CONTROL FOR STRESS PERIOD   34   TIME STEP   11
 
 SOLVING FOR HEAD 
                                                   Max.-Head-Change                         Max.-Flux-Residual
  Residual-Control   Outer-Iter.   Inner-Iter.     Column Row Layer    Maximum-Head-Change  Column Row Layer    Maximum-Flux-Residual          L2-NORM 
          0                 1           2             4    7     1       0.1243981486E-01       4    7    1         0.6515573430E+00      0.1725211900E+01
          0                 2           2             4   13     1      -0.3449035862E-02       4   13    1        -0.2033713092E+00      0.3904423750E+00
          0                 3           2             4   13     1      -0.5427476538E-03       4   13    1        -0.3199657328E-01      0.5717951996E-01
          0                 4           2             4   13     1      -0.3346259310E-03       4   13    1        -0.1972436392E-01      0.3439826938E-01
          0                 5           1             4   13     1      -0.9016025663E-04       4   13    1        -0.5314059003E-02      0.9303756148E-02

    ------------------------------------------------
       NWT REQUIRED            5 OUTER ITERATIONS 
       AND A TOTAL OF          9 INNER ITERATIONS.
    ------------------------------------------------

 NO OUTPUT CONTROL FOR STRESS PERIOD   34   TIME STEP   12
 
 SOLVING FOR HEAD 
                                                   Max.-Head-Change                         Max.-Flux-Residual
  Residual-Control   Outer-Iter.   Inner-Iter.     Column Row Layer    Maximum-Head-Change  Column Row Layer    Maximum-Flux-Residual          L2-NORM 
          0                 1           2             4    7     1       0.1233506138E-01       4    7    1         0.6463693785E+00      0.1683987565E+01
          0                 2           2             4   13     1      -0.3426228056E-02       4   13    1        -0.2020238894E+00      0.3868929892E+00
          0                 3           2             4   13     1      -0.5445153762E-03       4   13    1        -0.3210101403E-01      0.5729797566E-01
          0                 4           2             4   13     1      -0.3341799849E-03       4   13    1        -0.1969806918E-01      0.3435178948E-01
          0                 5           1             4   13     1      -0.9025015475E-04       4   13    1        -0.5319349006E-02      0.9313549065E-02

    ------------------------------------------------
       NWT REQUIRED            5 OUTER ITERATIONS 
       AND A TOTAL OF          9 INNER ITERATIONS.
    ------------------------------------------------

 NO OUTPUT CONTROL FOR STRESS PERIOD   34   TIME STEP   13
 
 SOLVING FOR HEAD 
                                                   Max.-Head-Change                         Max.-Flux-Residual
  Residual-Control   Outer-Iter.   Inner-Iter.     Column Row Layer    Maximum-Head-Change  Column Row Layer    Maximum-Flux-Residual          L2-NORM 
          0                 1           2             4    7     1       0.1222586265E-01       4    7    1         0.6409232406E+00      0.1644901208E+01
          0                 2           2             4   13     1      -0.3405601571E-02       4   13    1        -0.2008058457E+00      0.3835862934E+00
          0                 3           2             4   13     1      -0.5459292311E-03       4   13    1        -0.3218450487E-01      0.5739068307E-01
          0                 4           2             4   13     1      -0.3336682015E-03       4   13    1        -0.1966788195E-01      0.3429920587E-01
          0                 5           1             4   13     1      -0.9053371044E-04       4   13    1        -0.5336095131E-02      0.9339660703E-02

    ------------------------------------------------
       NWT REQUIRED            5 OUTER ITERATIONS 
       AND A TOTAL OF          9 INNER ITERATIONS.
    ------------------------------------------------

 NO OUTPUT CONTROL FOR STRESS PERIOD   34   TIME STEP   14
 
 SOLVING FOR HEAD 
                                                   Max.-Head-Change                         Max.-Flux-Residual
  Residual-Control   Outer-Iter.   Inner-Iter.     Column Row Layer    Maximum-Head-Change  Column Row Layer    Maximum-Flux-Residual          L2-NORM 
          0                 1           2             4    7     1       0.1211272148E-01       4    7    1         0.6352466194E+00      0.1607806793E+01
          0                 2           2             4   13     1      -0.3386749186E-02       4   13    1        -0.1996929243E+00      0.3804987615E+00
          0                 3           2             4   13     1      -0.5471460378E-03       4   13    1        -0.3225641646E-01      0.5745967846E-01
          0                 4           2             4   13     1      -0.3330759952E-03       4   13    1        -0.1963301040E-01      0.3423683497E-01
          0                 5           1             4   13     1      -0.9098097546E-04       4   13    1        -0.5362414940E-02      0.9387201033E-02

    ------------------------------------------------
       NWT REQUIRED            5 OUTER ITERATIONS 
       AND A TOTAL OF          9 INNER ITERATIONS.
    ------------------------------------------------

 NO OUTPUT CONTROL FOR STRESS PERIOD   34   TIME STEP   15
 
 SOLVING FOR HEAD 
                                                   Max.-Head-Change                         Max.-Flux-Residual
  Residual-Control   Outer-Iter.   Inner-Iter.     Column Row Layer    Maximum-Head-Change  Column Row Layer    Maximum-Flux-Residual          L2-NORM 
          0                 1           2             4    7     1       0.1199610832E-01       4    7    1         0.6293655855E+00      0.1572554560E+01
          0                 2           2             4   13     1      -0.3369642333E-02       4   13    1        -0.1986834513E+00      0.3776152552E+00
          0                 3           2             4   13     1      -0.5480087729E-03       4   13    1        -0.3230735758E-01      0.5750545468E-01
          0                 4           2             4   13     1      -0.3324472594E-03       4   13    1        -0.1959596883E-01      0.3416957405E-01
          0                 5           1             4   13     1      -0.9161524937E-04       4   13    1        -0.5399821805E-02      0.9449843414E-02

    ------------------------------------------------
       NWT REQUIRED            5 OUTER ITERATIONS 
       AND A TOTAL OF          9 INNER ITERATIONS.
    ------------------------------------------------

 NO OUTPUT CONTROL FOR STRESS PERIOD   34   TIME STEP   16
 
 SOLVING FOR HEAD 
                                                   Max.-Head-Change                         Max.-Flux-Residual
  Residual-Control   Outer-Iter.   Inner-Iter.     Column Row Layer    Maximum-Head-Change  Column Row Layer    Maximum-Flux-Residual          L2-NORM 
          0                 1           2             4    7     1       0.1187644980E-01       4    7    1         0.6233045310E+00      0.1539013482E+01
          0                 2           2             4   13     1      -0.3354081126E-02       4   13    1        -0.1977655410E+00      0.3749225012E+00
          0                 3           2             4   13     1      -0.5486421786E-03       4   13    1        -0.3234479245E-01      0.5752790750E-01
          0                 4           2             4   13     1      -0.3317381324E-03       4   13    1        -0.1955417481E-01      0.3409473882E-01
          0                 5           1             4   13     1      -0.9242397112E-04       4   13    1        -0.5447505246E-02      0.9532490610E-02

    ------------------------------------------------
       NWT REQUIRED            5 OUTER ITERATIONS 
       AND A TOTAL OF          9 INNER ITERATIONS.
    ------------------------------------------------

 NO OUTPUT CONTROL FOR STRESS PERIOD   34   TIME STEP   17
 
 SOLVING FOR HEAD 
                                                   Max.-Head-Change                         Max.-Flux-Residual
  Residual-Control   Outer-Iter.   Inner-Iter.     Column Row Layer    Maximum-Head-Change  Column Row Layer    Maximum-Flux-Residual          L2-NORM 
          0                 1           2             4    7     1       0.1175443106E-01       4    7    1         0.6171003497E+00      0.1507079811E+01
          0                 2           2             4   13     1      -0.3339918157E-02       4   13    1        -0.1969304629E+00      0.3724019183E+00
          0                 3           2             4   13     1      -0.5489942546E-03       4   13    1        -0.3236558669E-01      0.5752956943E-01
          0                 4           2             4   13     1      -0.3309871703E-03       4   13    1        -0.1950994236E-01      0.3401537459E-01
          0                 5           1             4   13     1      -0.9337832125E-04       4   13    1        -0.5503755051E-02      0.9629113033E-02

    ------------------------------------------------
       NWT REQUIRED            5 OUTER ITERATIONS 
       AND A TOTAL OF          9 INNER ITERATIONS.
    ------------------------------------------------

 NO OUTPUT CONTROL FOR STRESS PERIOD   34   TIME STEP   18
 
 SOLVING FOR HEAD 
                                                   Max.-Head-Change                         Max.-Flux-Residual
  Residual-Control   Outer-Iter.   Inner-Iter.     Column Row Layer    Maximum-Head-Change  Column Row Layer    Maximum-Flux-Residual          L2-NORM 
          0                 1           2             4    7     1       0.1162986686E-01       4    7    1         0.6107442453E+00      0.1476619246E+01
          0                 2           2             4   13     1      -0.3326956659E-02       4   13    1        -0.1961664730E+00      0.3700440838E+00
          0                 3           2             4   13     1      -0.5492270543E-03       4   13    1        -0.3237938853E-01      0.5751474750E-01
          0                 4           2             4   13     1      -0.3301767822E-03       4   13    1        -0.1946219258E-01      0.3392851598E-01
          0                 5           1             4   13     1      -0.9445026006E-04       4   13    1        -0.5566942586E-02      0.9739549268E-02

    ------------------------------------------------
       NWT REQUIRED            5 OUTER ITERATIONS 
       AND A TOTAL OF          9 INNER ITERATIONS.
    ------------------------------------------------

 NO OUTPUT CONTROL FOR STRESS PERIOD   34   TIME STEP   19
 
 SOLVING FOR HEAD 
                                                   Max.-Head-Change                         Max.-Flux-Residual
  Residual-Control   Outer-Iter.   Inner-Iter.     Column Row Layer    Maximum-Head-Change  Column Row Layer    Maximum-Flux-Residual          L2-NORM 
          0                 1           2             4    7     1       0.1150366465E-01       4    7    1         0.6042857076E+00      0.1447556571E+01
          0                 2           2             4   13     1      -0.3309128568E-02       4   13    1        -0.1951162699E+00      0.3672535020E+00
          0                 3           2             4   13     1      -0.5553060487E-03       4   13    1        -0.3273775114E-01      0.5810296445E-01
          0                 4           2             4   13     1      -0.3292130073E-03       4   13    1        -0.1940541442E-01      0.3382828788E-01
          0                 5           1             4   13     1      -0.9566902634E-04       4   13    1        -0.5638791953E-02      0.9863059214E-02

    ------------------------------------------------
       NWT REQUIRED            5 OUTER ITERATIONS 
       AND A TOTAL OF          9 INNER ITERATIONS.
    ------------------------------------------------

 NO OUTPUT CONTROL FOR STRESS PERIOD   34   TIME STEP   20
 
 SOLVING FOR HEAD 
                                                   Max.-Head-Change                         Max.-Flux-Residual
  Residual-Control   Outer-Iter.   Inner-Iter.     Column Row Layer    Maximum-Head-Change  Column Row Layer    Maximum-Flux-Residual          L2-NORM 
          0                 1           2             4    7     1       0.1137587101E-01       4    7    1         0.5977274661E+00      0.1419797837E+01
          0                 2           2             4   13     1      -0.3299544549E-02       4   13    1        -0.1945518398E+00      0.3652965708E+00
          0                 3           2             4   13     1      -0.5538109929E-03       4   13    1        -0.3264960569E-01      0.5792408589E-01
          0                 4           2             4   13     1      -0.3283165439E-03       4   13    1        -0.1935260917E-01      0.3373329055E-01
          0                 5           1             4   13     1      -0.9706526026E-04       4   13    1        -0.5721095146E-02      0.1000571474E-01

    ------------------------------------------------
       NWT REQUIRED            5 OUTER ITERATIONS 
       AND A TOTAL OF          9 INNER ITERATIONS.
    ------------------------------------------------

 NO OUTPUT CONTROL FOR STRESS PERIOD   34   TIME STEP   21
 
 SOLVING FOR HEAD 
                                                   Max.-Head-Change                         Max.-Flux-Residual
  Residual-Control   Outer-Iter.   Inner-Iter.     Column Row Layer    Maximum-Head-Change  Column Row Layer    Maximum-Flux-Residual          L2-NORM 
          0                 1           2             4    7     1       0.1124650711E-01       4    7    1         0.5910719344E+00      0.1393238395E+01
          0                 2           2             4   13     1      -0.3290711070E-02       4   13    1        -0.1940318391E+00      0.3634511498E+00
          0                 3           2             4   13     1      -0.5522807215E-03       4   13    1        -0.3255942128E-01      0.5774182853E-01
          0                 4           2             4   13     1      -0.3273674514E-03       4   13    1        -0.1929665677E-01      0.3363562292E-01
          0                 5           1             4   13     1      -0.9858815794E-04       4   13    1        -0.5810872489E-02      0.1016045859E-01

    ------------------------------------------------
       NWT REQUIRED            5 OUTER ITERATIONS 
       AND A TOTAL OF          9 INNER ITERATIONS.
    ------------------------------------------------

 NO OUTPUT CONTROL FOR STRESS PERIOD   34   TIME STEP   22
 
 SOLVING FOR HEAD 
                                                   Max.-Head-Change                         Max.-Flux-Residual
  Residual-Control   Outer-Iter.   Inner-Iter.     Column Row Layer    Maximum-Head-Change  Column Row Layer    Maximum-Flux-Residual          L2-NORM 
          0                 1           2             4    7     1       0.1111640504E-01       4    7    1         0.5843645350E+00      0.1367824655E+01
          0                 2           2             4   13     1      -0.3282620839E-02       4   13    1        -0.1935558229E+00      0.3617133568E+00
          0                 3           2             4   13     1      -0.5506865077E-03       4   13    1        -0.3246538051E-01      0.5755901935E-01
          0                 4           2             4   13     1      -0.3263825440E-03       4   13    1        -0.1923868126E-01      0.3352913195E-01
          0                 5           1             4   13     1      -0.1002513104E-03       4   13    1        -0.5908910807E-02      0.1032976363E-01
          0                 6           2             4   13     1      -0.1633596663E-03       4   13    1        -0.9628145398E-02      0.1676046922E-01
          0                 7           1             4   13     1       0.1098366475E-04       4   13    1         0.6655856496E-03      0.1129604799E-02

    ------------------------------------------------
       NWT REQUIRED            7 OUTER ITERATIONS 
       AND A TOTAL OF         12 INNER ITERATIONS.
    ------------------------------------------------

 NO OUTPUT CONTROL FOR STRESS PERIOD   34   TIME STEP   23
 
 SOLVING FOR HEAD 
                                                   Max.-Head-Change                         Max.-Flux-Residual
  Residual-Control   Outer-Iter.   Inner-Iter.     Column Row Layer    Maximum-Head-Change  Column Row Layer    Maximum-Flux-Residual          L2-NORM 
          0                 1           2             4    7     1       0.1098553926E-01       4    7    1         0.5776040860E+00      0.1343986000E+01
          0                 2           2             4   13     1      -0.3276782650E-02       4   13    1        -0.1932132686E+00      0.3602009718E+00
          0                 3           2             4   13     1      -0.5490263116E-03       4   13    1        -0.3236745187E-01      0.5737062667E-01
          0                 4           2             4   13     1      -0.3253657273E-03       4   13    1        -0.1917878242E-01      0.3342227131E-01
          0                 5           1             4   13     1      -0.1020527872E-03       4   13    1        -0.6015092221E-02      0.1051396227E-01
          0                 6           2             4   13     1      -0.1645177966E-03       4   13    1        -0.9696427047E-02      0.1687736546E-01
          0                 7           1             4   13     1       0.1105588355E-04       4   13    1         0.6699657670E-03      0.1137244080E-02

    ------------------------------------------------
       NWT REQUIRED            7 OUTER ITERATIONS 
       AND A TOTAL OF         12 INNER ITERATIONS.
    ------------------------------------------------

 NO OUTPUT CONTROL FOR STRESS PERIOD   34   TIME STEP   24
 
 SOLVING FOR HEAD 
                                                   Max.-Head-Change                         Max.-Flux-Residual
  Residual-Control   Outer-Iter.   Inner-Iter.     Column Row Layer    Maximum-Head-Change  Column Row Layer    Maximum-Flux-Residual          L2-NORM 
          0                 1           2             4    7     1       0.1085414447E-01       4    7    1         0.5708040390E+00      0.1321111851E+01
          0                 2           2             4   13     1      -0.2888231710E-02       4   13    1        -0.1703257228E+00      0.3221172409E+00
          0                 3           2             4   13     1      -0.1108872509E-02       4   13    1        -0.6536965218E-01      0.1143475694E+00
          0                 4           2             4   13     1      -0.1228923173E-03       4   13    1        -0.7243296207E-02      0.1277500377E-01
          0                 5           2             4   13     1      -0.1623887899E-03       4   13    1        -0.9571566713E-02      0.1665479461E-01
          0                 6           2             4   13     1      -0.1278551847E-03       4   13    1        -0.7535507374E-02      0.1313242204E-01
          0                 7           1             4   13     1       0.8604042265E-05       4   13    1         0.5213812874E-03      0.8860467473E-03

    ------------------------------------------------
       NWT REQUIRED            7 OUTER ITERATIONS 
       AND A TOTAL OF         13 INNER ITERATIONS.
    ------------------------------------------------

 NO OUTPUT CONTROL FOR STRESS PERIOD   34   TIME STEP   25
 
 SOLVING FOR HEAD 
                                                   Max.-Head-Change                         Max.-Flux-Residual
  Residual-Control   Outer-Iter.   Inner-Iter.     Column Row Layer    Maximum-Head-Change  Column Row Layer    Maximum-Flux-Residual          L2-NORM 
          0                 1           2             4    7     1       0.1072243619E-01       4    7    1         0.5639765624E+00      0.1299149601E+01
          0                 2           2             4   13     1      -0.2878402574E-02       4   13    1        -0.1697480291E+00      0.3202389215E+00
          0                 3           2             4   13     1      -0.1109016146E-02       4   13    1        -0.6537818247E-01      0.1143518312E+00
          0                 4           2             4   13     1      -0.1253873839E-03       4   13    1        -0.7390408094E-02      0.1302744227E-01
          0                 5           2             4   13     1      -0.1641304598E-03       4   13    1        -0.9674221807E-02      0.1683308177E-01
          0                 6           2             4   13     1      -0.1286878507E-03       4   13    1        -0.7584588861E-02      0.1321748381E-01
          0                 7           1             4   13     1       0.8658717603E-05       4   13    1         0.5246914834E-03      0.8916225593E-03

    ------------------------------------------------
       NWT REQUIRED            7 OUTER ITERATIONS 
       AND A TOTAL OF         13 INNER ITERATIONS.
    ------------------------------------------------

 NO OUTPUT CONTROL FOR STRESS PERIOD   34   TIME STEP   26
 
 SOLVING FOR HEAD 
                                                   Max.-Head-Change                         Max.-Flux-Residual
  Residual-Control   Outer-Iter.   Inner-Iter.     Column Row Layer    Maximum-Head-Change  Column Row Layer    Maximum-Flux-Residual          L2-NORM 
          0                 1           2             4    7     1       0.1059034354E-01       4    7    1         0.5571180540E+00      0.1278039136E+01
          0                 2           2             4   13     1      -0.2868910083E-02       4   13    1        -0.1691901809E+00      0.3184305252E+00
          0                 3           2             4   13     1      -0.1109167908E-02       4   13    1        -0.6538718389E-01      0.1143471569E+00
          0                 4           2             4   13     1      -0.1277777398E-03       4   13    1        -0.7531332664E-02      0.1326626517E-01
          0                 5           2             4   13     1      -0.1661143619E-03       4   13    1        -0.9791168994E-02      0.1703534606E-01
          0                 6           2             4   13     1      -0.1294707951E-03       4   13    1        -0.7630742534E-02      0.1329541588E-01
          0                 7           1             4   13     1       0.8944639632E-05       4   13    1         0.5421695014E-03      0.9054637652E-03

    ------------------------------------------------
       NWT REQUIRED            7 OUTER ITERATIONS 
       AND A TOTAL OF         13 INNER ITERATIONS.
    ------------------------------------------------

 NO OUTPUT CONTROL FOR STRESS PERIOD   34   TIME STEP   27
 
 SOLVING FOR HEAD 
                                                   Max.-Head-Change                         Max.-Flux-Residual
  Residual-Control   Outer-Iter.   Inner-Iter.     Column Row Layer    Maximum-Head-Change  Column Row Layer    Maximum-Flux-Residual          L2-NORM 
          0                 1           2             4    7     1       0.1045860574E-01       4    7    1         0.5502691694E+00      0.1257753821E+01
          0                 2           2             4   13     1      -0.2856101246E-02       4   13    1        -0.1684369249E+00      0.3163442418E+00
          0                 3           2             4   13     1      -0.1115647959E-02       4   13    1        -0.6576921654E-01      0.1149989206E+00
          0                 4           2             4   13     1      -0.1264620953E-03       4   13    1        -0.7453783628E-02      0.1313229045E-01
          0                 5           2             4   13     1      -0.1692044865E-03       4   13    1        -0.9973323441E-02      0.1735079963E-01
          0                 6           2             4   13     1      -0.1282006645E-03       4   13    1        -0.7555892907E-02      0.1316462148E-01
          0                 7           1             4   13     1       0.8610944506E-05       4   13    1         0.5217963426E-03      0.8877991489E-03

    ------------------------------------------------
       NWT REQUIRED            7 OUTER ITERATIONS 
       AND A TOTAL OF         13 INNER ITERATIONS.
    ------------------------------------------------

 NO OUTPUT CONTROL FOR STRESS PERIOD   34   TIME STEP   28
 
 SOLVING FOR HEAD 
                                                   Max.-Head-Change                         Max.-Flux-Residual
  Residual-Control   Outer-Iter.   Inner-Iter.     Column Row Layer    Maximum-Head-Change  Column Row Layer    Maximum-Flux-Residual          L2-NORM 
          0                 1           2             4    7     1       0.1032710569E-01       4    7    1         0.5434239057E+00      0.1238231334E+01
          0                 2           2             4   13     1      -0.2850863190E-02       4   13    1        -0.1681297385E+00      0.3150162014E+00
          0                 3           2             4   13     1      -0.1100820709E-02       4   13    1        -0.6489542581E-01      0.1134761788E+00
          0                 4           2             4   13     1      -0.1385715569E-03       4   13    1        -0.8167676237E-02      0.1436721185E-01
          0                 5           2             4   13     1      -0.1571944200E-03       4   13    1        -0.9265471615E-02      0.1612016031E-01
          0                 6           2             4   13     1      -0.1361216304E-03       4   13    1        -0.8022782180E-02      0.1397458521E-01
          0                 7           1             4   13     1       0.9160924226E-05       4   13    1         0.5551256136E-03      0.9437588909E-03

    ------------------------------------------------
       NWT REQUIRED            7 OUTER ITERATIONS 
       AND A TOTAL OF         13 INNER ITERATIONS.
    ------------------------------------------------

 NO OUTPUT CONTROL FOR STRESS PERIOD   34   TIME STEP   29
 
 SOLVING FOR HEAD 
                                                   Max.-Head-Change                         Max.-Flux-Residual
  Residual-Control   Outer-Iter.   Inner-Iter.     Column Row Layer    Maximum-Head-Change  Column Row Layer    Maximum-Flux-Residual          L2-NORM 
          0                 1           2             4    7     1       0.1019599596E-01       4    7    1         0.5365909685E+00      0.1219401165E+01
          0                 2           2             4   13     1      -0.2843940949E-02       4   13    1        -0.1677232474E+00      0.3135631462E+00
          0                 3           2             4   13     1      -0.1110359258E-02       4   13    1        -0.6545757349E-01      0.1144406325E+00
          0                 4           2             4   13     1      -0.1369896552E-03       4   13    1        -0.8074383157E-02      0.1420705054E-01
          0                 5           2             4   13     1      -0.1566696552E-03       4   13    1        -0.9234536708E-02      0.1606542016E-01
          0                 6           2             4   13     1      -0.1347154616E-03       4   13    1        -0.7939885272E-02      0.1384654672E-01
          0                 7           1             4   13     1       0.9065301820E-05       4   13    1         0.5493300414E-03      0.9517686991E-03

    ------------------------------------------------
       NWT REQUIRED            7 OUTER ITERATIONS 
       AND A TOTAL OF         13 INNER ITERATIONS.
    ------------------------------------------------

 NO OUTPUT CONTROL FOR STRESS PERIOD   34   TIME STEP   30



 STREAM LISTING     PERIOD     34   STEP       30

 LAYER ROW COL. STREAM  RCH.  FLOW INTO     FLOW TO   FLOW OUT OF   OVRLND.     DIRECT     STREAM       STREAM     STREAM     STREAM   STREAMBED  STREAMBED
                SEG.NO.  NO.  STRM. RCH.    AQUIFER    STRM. RCH.    RUNOFF     PRECIP       ET          HEAD       DEPTH      WIDTH   CONDCTNC.   GRADIENT

   1    1    1     1     1    3.5249E+01  2.8720E-01   3.4962E+01  0.000E+00  0.000E+00  0.000E+00  1.09434E+03  1.294E+00  1.486E+01  6.688E-02  1.431E+00
   1    2    2     1     2    3.4962E+01  4.4466E-01   3.4517E+01  0.000E+00  0.000E+00  0.000E+00  1.08935E+03  1.291E+00  1.480E+01  1.036E-01  1.430E+00
   1    3    3     1     3    3.4517E+01  3.7911E-01   3.4138E+01  0.000E+00  0.000E+00  0.000E+00  1.08371E+03  1.288E+00  1.474E+01  8.841E-02  1.429E+00
   1    3    4     1     4    3.4138E+01  3.4901E-01   3.3789E+01  0.000E+00  0.000E+00  0.000E+00  1.07869E+03  1.285E+00  1.468E+01  8.145E-02  1.428E+00
   1    4    5     2     1    3.1789E+01  3.4244E-01   3.1446E+01  0.000E+00  0.000E+00  0.000E+00  1.07332E+03  1.390E+00  1.200E+01  7.800E-02  1.463E+00
   1    5    6     2     2    3.1446E+01  2.6294E-01   3.1184E+01  0.000E+00  0.000E+00  0.000E+00  1.06789E+03  1.382E+00  1.200E+01  6.000E-02  1.461E+00
   1    6    6     2     3    3.1184E+01  2.6252E-01   3.0921E+01  0.000E+00  0.000E+00  0.000E+00  1.06317E+03  1.375E+00  1.200E+01  6.000E-02  1.458E+00
   1    7    6     2     4    3.0921E+01  2.6210E-01   3.0659E+01  0.000E+00  0.000E+00  0.000E+00  1.05844E+03  1.368E+00  1.200E+01  6.000E-02  1.456E+00
   1    8    6     2     5    3.0659E+01  2.6168E-01   3.0397E+01  0.000E+00  0.000E+00  0.000E+00  1.05372E+03  1.361E+00  1.200E+01  6.000E-02  1.454E+00
   1    3    5     3     1    2.0000E+00  2.8252E-01   1.7175E+00  0.000E+00  0.000E+00  0.000E+00  1.07555E+03  1.909E+00  9.636E+00  7.227E-02  1.955E+00
   1    3    6     3     2    1.7175E+00  2.4905E-01   1.4684E+00  0.000E+00  0.000E+00  0.000E+00  1.07264E+03  1.727E+00  8.909E+00  6.682E-02  1.864E+00
   1    3    7     3     3    1.4684E+00  1.9718E-01   1.2712E+00  0.000E+00  0.000E+00  0.000E+00  1.06987E+03  1.555E+00  8.218E+00  5.547E-02  1.777E+00
   1    4    8     3     4    1.2712E+00  2.2567E-01   1.0456E+00  0.000E+00  0.000E+00  0.000E+00  1.06682E+03  1.364E+00  7.455E+00  6.709E-02  1.682E+00
   1    5    8     3     5    1.0456E+00  1.5790E-01   8.8768E-01  0.000E+00  0.000E+00  0.000E+00  1.06362E+03  1.164E+00  6.655E+00  4.991E-02  1.582E+00
   1    6    8     3     6    8.8768E-01  5.5980E-02   8.3170E-01  0.000E+00  0.000E+00  0.000E+00  1.06158E+03  1.036E+00  6.145E+00  1.844E-02  1.518E+00
   1    5   10     4     1    1.0000E+01  9.0919E-02   9.9091E+00  0.000E+00  0.000E+00  0.000E+00  1.07836E+03  6.368E-01  1.000E+01  2.500E-02  1.212E+00
   1    5    9     4     2    9.9091E+00  1.8158E-01   9.7275E+00  0.000E+00  0.000E+00  0.000E+00  1.07154E+03  6.315E-01  1.000E+01  5.000E-02  1.211E+00
   1    6    8     4     3    9.7275E+00  1.2689E-01   9.6006E+00  0.000E+00  0.000E+00  0.000E+00  1.06381E+03  6.256E-01  1.000E+01  3.500E-02  1.209E+00
   1    6    8     5     1    1.0432E+01  2.2686E-01   1.0205E+01  0.000E+00  0.000E+00  0.000E+00  1.05868E+03  6.790E-01  1.542E+01  6.166E-02  1.226E+00
   1    7    7     5     2    1.0205E+01  2.7894E-01   9.9265E+00  0.000E+00  0.000E+00  0.000E+00  1.05417E+03  6.732E-01  1.519E+01  7.594E-02  1.224E+00
   1    8    7     5     3    9.9265E+00  1.9221E-01   9.7343E+00  0.000E+00  0.000E+00  0.000E+00  1.04992E+03  6.676E-01  1.497E+01  5.241E-02  1.223E+00
   1    8    6     5     4    9.7343E+00  1.3577E-01   9.5985E+00  0.000E+00  0.000E+00  0.000E+00  1.04691E+03  6.637E-01  1.482E+01  3.706E-02  1.221E+00
   1    9    6     6     1    2.8933E+01  2.5976E-01   2.8673E+01  0.000E+00  0.000E+00  0.000E+00  1.04406E+03  1.329E+00  1.200E+01  6.000E-02  1.443E+00
   1   10    7     6     2    2.8673E+01  2.5933E-01   2.8414E+01  0.000E+00  0.000E+00  0.000E+00  1.03950E+03  1.322E+00  1.200E+01  6.000E-02  1.441E+00
   1   11    7     6     3    2.8414E+01  2.5890E-01   2.8155E+01  0.000E+00  0.000E+00  0.000E+00  1.03495E+03  1.315E+00  1.200E+01  6.000E-02  1.438E+00
   1   12    7     6     4    2.8155E+01  2.5846E-01   2.7897E+01  0.000E+00  0.000E+00  0.000E+00  1.03040E+03  1.308E+00  1.200E+01  6.000E-02  1.436E+00
   1   13    7     6     5    2.7897E+01  3.9058E-03   2.7893E+01  0.000E+00  0.000E+00  0.000E+00  1.02721E+03  1.304E+00  1.200E+01  2.400E-02  5.425E-02
   1   14    9     7     1    1.5000E+02  1.3400E+00   1.4866E+02  0.000E+00  0.000E+00  0.000E+00  1.03987E+03  2.288E+00  5.529E+01  5.593E-01  7.986E-01
   1   13    8     7     2    1.4866E+02  1.8432E+00   1.4682E+02  0.000E+00  0.000E+00  0.000E+00  1.03478E+03  2.279E+00  5.526E+01  6.148E-01  9.994E-01
   1   13    7     7     3    1.4682E+02  1.4740E+00   1.4534E+02  0.000E+00  0.000E+00  0.000E+00  1.02969E+03  2.270E+00  5.522E+01  5.584E-01  8.798E-01
   1   13    6     8     1    1.7324E+02  9.2991E-01   1.7231E+02  0.000E+00  0.000E+00  0.000E+00  1.02485E+03  2.970E+00  4.307E+01  4.389E-01  7.063E-01
   1   13    5     8     2    1.7231E+02  1.7212E-01   1.7213E+02  0.000E+00  0.000E+00  0.000E+00  1.01859E+03  2.967E+00  4.302E+01  4.383E-01  1.309E-01
   1   13    4     8     3    1.7213E+02 -2.4651E+00   1.7460E+02  0.000E+00  0.000E+00  0.000E+00  1.01235E+03  2.974E+00  4.312E+01  4.394E+00 -1.870E-01
   1   13    3     8     4    1.7460E+02 -3.6396E+00   1.7824E+02  0.000E+00  0.000E+00  0.000E+00  1.00612E+03  2.994E+00  4.341E+01  4.423E+00 -2.743E-01
   1   13    2     8     5    1.7824E+02 -2.5363E+00   1.8077E+02  0.000E+00  0.000E+00  0.000E+00  9.99888E+02  3.013E+00  4.369E+01  4.452E+00 -1.899E-01
   1   13    1     8     6    1.8077E+02 -1.9324E+00   1.8271E+02  0.000E+00  0.000E+00  0.000E+00  9.94902E+02  3.027E+00  4.389E+01  2.684E+00 -2.400E-01
   1    8    6     9     1    1.1063E+01  0.0000E+00   1.1063E+01  0.000E+00  0.000E+00  0.000E+00  1.08116E+03  2.408E+00  4.000E+00  0.000E+00  1.803E+00
   1    8    5     9     2    1.1063E+01  0.0000E+00   1.1063E+01  0.000E+00  0.000E+00  0.000E+00  1.08066E+03  2.408E+00  4.000E+00  0.000E+00  1.803E+00





UNSATURATED ZONE PACKAGE VOLUMETRIC BUDGET FOR  TIME STEP    30 STRESS PERIOD   34
  ------------------------------------------------------------------------------



     CUMULATIVE VOLUMES      L**3       RATES FOR THIS TIME STEP      L**3/T
     ------------------                 ------------------------

           IN:                                      IN:
           ---                                      ---
        INFILTRATION =  1575357006.5032          INFILTRATION =          15.4705

          OUT:                                     OUT:
          ----                                     ----
              UZF ET =  1478385051.6587                UZF ET =          15.3575
        UZF RECHARGE =     1188452.4670          UZF RECHARGE =       0.0000E+00

            IN - OUT =    95783502.3775              IN - OUT =           0.1130

          STORAGE:                                 STORAGE:
          --------                                 --------
      STORAGE CHANGE =    95784465.6687        STORAGE CHANGE =           0.1130

 PERCENT DISCREPANCY IS DIFFERENCE BETWEEN IN-OUT MINUS CHANGE IN STORAGE
 DIVIDED BY THE AVERAGE OF IN AND OUT TIMES 100

 PERCENT DISCREPANCY =          -0.00     PERCENT DISCREPANCY =           0.00






1
  VOLUMETRIC BUDGET FOR ENTIRE MODEL AT END OF TIME STEP   30, STRESS PERIOD  34
  ------------------------------------------------------------------------------

     CUMULATIVE VOLUMES      L**3       RATES FOR THIS TIME STEP      L**3/T
     ------------------                 ------------------------

           IN:                                      IN:
           ---                                      ---
               AG WELLS  =   219671824.0000                 AG WELLS  =           0.0000
      DIVERSION SEGMENTS =   973067840.0000        DIVERSION SEGMENTS =          11.0628
           GW IRRIGATION =           0.0000             GW IRRIGATION =           0.0000
           SW IRRIGATION =           0.0000             SW IRRIGATION =           0.0000
        SYSTEM LOSSES GW =           0.0000          SYSTEM LOSSES GW =           0.0000
        SYSTEM LOSSES SW =           0.0000          SYSTEM LOSSES SW =           0.0000

                TOTAL IN =  1192739712.0000                  TOTAL IN =          11.0628

          OUT:                                     OUT:
          ----                                     ----
               AG WELLS  =           0.0000                 AG WELLS  =           0.0000
      DIVERSION SEGMENTS =           0.0000        DIVERSION SEGMENTS =           0.0000
           GW IRRIGATION =   219671824.0000             GW IRRIGATION =           0.0000
           SW IRRIGATION =   973087552.0000             SW IRRIGATION =          11.0630
        SYSTEM LOSSES GW =           0.0000          SYSTEM LOSSES GW =           0.0000
        SYSTEM LOSSES SW =           0.0000          SYSTEM LOSSES SW =           0.0000

               TOTAL OUT =  1192759424.0000                 TOTAL OUT =          11.0630

                IN - OUT =      -19712.0000                  IN - OUT =      -2.2125E-04

     PERCENT DISCREPANCY =          -0.00         PERCENT DISCREPANCY =          -0.00



1
  VOLUMETRIC BUDGET FOR ENTIRE MODEL AT END OF TIME STEP   30, STRESS PERIOD  34
  ------------------------------------------------------------------------------

     CUMULATIVE VOLUMES      L**3       RATES FOR THIS TIME STEP      L**3/T
     ------------------                 ------------------------

           IN:                                      IN:
           ---                                      ---
             STORAGE     =   361686688.0000               STORAGE     =           1.7462
       CONSTANT HEAD     =           0.0000         CONSTANT HEAD     =           0.0000
     HEAD DEP BOUNDS     =    24831480.0000       HEAD DEP BOUNDS     =           0.2860
      STREAM LEAKAGE     =  1038882624.0000        STREAM LEAKAGE     =          12.0527
        UZF RECHARGE     =     1188452.5000          UZF RECHARGE     =           0.0000
               GW ET     =           0.0000                 GW ET     =           0.0000
     SURFACE LEAKAGE     =           0.0000       SURFACE LEAKAGE     =           0.0000
           AG WELLS      =           0.0000             AG WELLS      =           0.0000

                TOTAL IN =  1426589312.0000                  TOTAL IN =          14.0850

          OUT:                                     OUT:
          ----                                     ----
             STORAGE     =   237486064.0000               STORAGE     =           3.2220
       CONSTANT HEAD     =           0.0000         CONSTANT HEAD     =           0.0000
     HEAD DEP BOUNDS     =    25257332.0000       HEAD DEP BOUNDS     =           0.2896
      STREAM LEAKAGE     =   940913920.0000        STREAM LEAKAGE     =          10.5735
        UZF RECHARGE     =           0.0000          UZF RECHARGE     =           0.0000
               GW ET     =     3265349.0000                 GW ET     =           0.0000
     SURFACE LEAKAGE     =           0.0000       SURFACE LEAKAGE     =           0.0000
           AG WELLS      =   219671824.0000             AG WELLS      =           0.0000

               TOTAL OUT =  1426594560.0000                 TOTAL OUT =          14.0851

                IN - OUT =       -5248.0000                  IN - OUT =      -9.0599E-05

     PERCENT DISCREPANCY =          -0.00         PERCENT DISCREPANCY =          -0.00






         TIME SUMMARY AT END OF TIME STEP   30 IN STRESS PERIOD   34
                    SECONDS     MINUTES      HOURS       DAYS        YEARS
                    -----------------------------------------------------------
   TIME STEP LENGTH  87667.      1461.1      24.352      1.0147     2.77799E-03
 STRESS PERIOD TIME 2.63000E+06  43833.      730.56      30.440     8.33397E-02
         TOTAL TIME 8.68762E+07 1.44794E+06  24132.      1005.5      2.7529    
1
1
                            STRESS PERIOD NO.   35, LENGTH =   2630000.    
                            -----------------------------------------------

                              NUMBER OF TIME STEPS =    30

                               MULTIPLIER FOR DELT =     1.000

                            INITIAL TIME STEP SIZE =   87666.66    

 REUSING NON-PARAMETER GHB CELLS FROM LAST STRESS PERIOD

      2 GHB CELLS

 REUSING STREAM SEGMENT DATA FROM LAST STRESS PERIOD



            AREAL INFILTRATION RATE
 READING ON UNIT   19 WITH FORMAT: (10F4.0)            

            1           2           3           4           5           6           7           8           9          10
 ........................................................................................................................
   1   1.2000E-09   0.000       0.000       0.000       0.000       0.000       0.000       0.000       0.000       0.000    
   2   2.1000E-09  2.0000E-09  8.0000E-10  8.5000E-09   0.000       0.000       0.000       0.000       0.000       0.000    
   3   5.0000E-10  1.1000E-09  8.8000E-09  5.5000E-09   0.000       0.000       0.000       0.000       0.000       0.000    
   4   8.5000E-09  1.1000E-09  1.1000E-09  1.1000E-09  2.0000E-09   0.000       0.000       0.000       0.000       0.000    
   5   8.5000E-09  1.1000E-09  1.1000E-09  1.1000E-09  1.1000E-09   0.000       0.000       0.000       0.000       0.000    
   6   8.5000E-09  5.2000E-09  2.1000E-09  1.1000E-09  1.5000E-09   0.000       0.000       0.000       0.000       0.000    
   7   8.5000E-09  5.2000E-09  2.1000E-09  1.2000E-09  2.0000E-09   0.000       0.000       0.000       0.000       0.000    
   8   5.0000E-10  5.2000E-09  2.1000E-09  1.2000E-09  5.0000E-09   0.000       0.000       0.000       0.000       0.000    
   9   5.0000E-10  5.2000E-09  2.1000E-09  1.2000E-09  5.0000E-09   0.000       0.000       0.000       0.000       0.000    
  10   5.0000E-10  5.2000E-09  2.1000E-09  1.2000E-09  5.8000E-09   0.000       0.000       0.000       0.000       0.000    
  11   1.0000E-10  1.1000E-09  1.1000E-09  1.2000E-09  5.0000E-09   0.000       0.000       0.000       0.000       0.000    
  12   1.1000E-09  1.1000E-09  1.1000E-09  1.1000E-09  2.0000E-09   0.000       0.000       0.000       0.000       0.000    
  13   1.1000E-09  2.2000E-09  2.2000E-09  2.1000E-09  1.0000E-09   0.000       0.000       0.000       0.000       0.000    
  14   2.0000E-10  5.5000E-09  5.5000E-09  5.2000E-09  1.0000E-09   0.000       0.000       0.000       0.000       0.000    
  15    0.000      8.8000E-09  8.8000E-09   0.000       0.000       0.000       0.000       0.000       0.000       0.000    

                  ET RATE =  5.000000E-09

 USING ET EXTINCTION DEPTH FROM PREVIOUS STRESS PERIOD. CURRENT PERIOD IS:      35

 USING EXTINCTION WATER CONTENT FROM PREVIOUS STRESS PERIOD. CURRENT PERIOD IS:      35

 USING AIR ENTRY PRESSURE FROM PREVIOUS STRESS PERIOD. CURRENT PERIOD IS:      35

 USING ROOT PRESSURE HEAD FROM PREVIOUS STRESS PERIOD. CURRENT PERIOD IS:      35

 USING ROOT ACTIVITY FROM PREVIOUS STRESS PERIOD. CURRENT PERIOD IS:      35

 PROCESSING AG STRESS PERIOD DATA

 READING AG STRESS PERIOD DATA

 READING IRRIGATION SEGMENT

 READING IRRIGATION WELL

 READING SUPPLEMENTAL WELL

 END PROCESSING AG STRESS PERIOD DATA OPTIONS
 
 SOLVING FOR HEAD 
                                                   Max.-Head-Change                         Max.-Flux-Residual
  Residual-Control   Outer-Iter.   Inner-Iter.     Column Row Layer    Maximum-Head-Change  Column Row Layer    Maximum-Flux-Residual          L2-NORM 
          0                 1           2             4    7     1       0.1006541592E-01       4    7    1         0.5297782684E+00      0.1201276943E+01
          0                 2           2             4    7     1      -0.9790922306E-03       4    7    1        -0.5297794332E-01      0.1242835607E+00
          0                 3           1             4    7     1       0.6667253227E-04       4    7    1         0.3708456534E-02      0.8960503730E-02

    ------------------------------------------------
       NWT REQUIRED            3 OUTER ITERATIONS 
       AND A TOTAL OF          5 INNER ITERATIONS.
    ------------------------------------------------

 NO OUTPUT CONTROL FOR STRESS PERIOD   35   TIME STEP    1
 
 SOLVING FOR HEAD 
                                                   Max.-Head-Change                         Max.-Flux-Residual
  Residual-Control   Outer-Iter.   Inner-Iter.     Column Row Layer    Maximum-Head-Change  Column Row Layer    Maximum-Flux-Residual          L2-NORM 
          0                 1           2             4    7     1       0.9935414752E-02       4    7    1         0.5229907762E+00      0.1109861567E+01
          0                 2           2             4    7     1      -0.9664466459E-03       4    7    1        -0.5229919312E-01      0.1137506217E+00
          0                 3           1             4   13     1      -0.7028198775E-04       4   13    1        -0.4147467023E-02      0.1037031108E-01

    ------------------------------------------------
       NWT REQUIRED            3 OUTER ITERATIONS 
       AND A TOTAL OF          5 INNER ITERATIONS.
    ------------------------------------------------

 NO OUTPUT CONTROL FOR STRESS PERIOD   35   TIME STEP    2
 
 SOLVING FOR HEAD 
                                                   Max.-Head-Change                         Max.-Flux-Residual
  Residual-Control   Outer-Iter.   Inner-Iter.     Column Row Layer    Maximum-Head-Change  Column Row Layer    Maximum-Flux-Residual          L2-NORM 
          0                 1           2             4    7     1       0.9806122881E-02       4    7    1         0.5162355659E+00      0.1071006831E+01
          0                 2           2             4    7     1      -0.9538700552E-03       4    7    1        -0.5162367100E-01      0.1085824639E+00
          0                 3           1             4   13     1      -0.8621710114E-04       4   13    1        -0.5085234627E-02      0.1144085055E-01

    ------------------------------------------------
       NWT REQUIRED            3 OUTER ITERATIONS 
       AND A TOTAL OF          5 INNER ITERATIONS.
    ------------------------------------------------

 NO OUTPUT CONTROL FOR STRESS PERIOD   35   TIME STEP    3
 
 SOLVING FOR HEAD 
                                                   Max.-Head-Change                         Max.-Flux-Residual
  Residual-Control   Outer-Iter.   Inner-Iter.     Column Row Layer    Maximum-Head-Change  Column Row Layer    Maximum-Flux-Residual          L2-NORM 
          0                 1           2             4    7     1       0.9677645337E-02       4    7    1         0.5095171327E+00      0.1053795849E+01
          0                 2           2             4    7     1      -0.9413726741E-03       4    7    1        -0.5095182642E-01      0.1068466274E+00
          0                 3           1             4   13     1      -0.8935557913E-04       4   13    1        -0.5270130975E-02      0.1161866059E-01

    ------------------------------------------------
       NWT REQUIRED            3 OUTER ITERATIONS 
       AND A TOTAL OF          5 INNER ITERATIONS.
    ------------------------------------------------

 NO OUTPUT CONTROL FOR STRESS PERIOD   35   TIME STEP    4
 
 SOLVING FOR HEAD 
                                                   Max.-Head-Change                         Max.-Flux-Residual
  Residual-Control   Outer-Iter.   Inner-Iter.     Column Row Layer    Maximum-Head-Change  Column Row Layer    Maximum-Flux-Residual          L2-NORM 
          0                 1           2             4    7     1       0.9550088314E-02       4    7    1         0.5028409226E+00      0.1037153388E+01
          0                 2           2             4    7     1      -0.9289648327E-03       4    7    1        -0.5028420401E-01      0.1051657354E+00
          0                 3           1             4   13     1      -0.9104477610E-04       4   13    1        -0.5369570208E-02      0.1169043504E-01

    ------------------------------------------------
       NWT REQUIRED            3 OUTER ITERATIONS 
       AND A TOTAL OF          5 INNER ITERATIONS.
    ------------------------------------------------

 NO OUTPUT CONTROL FOR STRESS PERIOD   35   TIME STEP    5
 
 SOLVING FOR HEAD 
                                                   Max.-Head-Change                         Max.-Flux-Residual
  Residual-Control   Outer-Iter.   Inner-Iter.     Column Row Layer    Maximum-Head-Change  Column Row Layer    Maximum-Flux-Residual          L2-NORM 
          0                 1           2             4    7     1       0.9423540436E-02       4    7    1         0.4962124417E+00      0.1021039347E+01
          0                 2           2             4    7     1      -0.9166551527E-03       4    7    1        -0.4962135444E-01      0.1035285867E+00
          0                 3           1             4   13     1      -0.9338651585E-04       4   13    1        -0.5507535588E-02      0.1181890532E-01

    ------------------------------------------------
       NWT REQUIRED            3 OUTER ITERATIONS 
       AND A TOTAL OF          5 INNER ITERATIONS.
    ------------------------------------------------

 NO OUTPUT CONTROL FOR STRESS PERIOD   35   TIME STEP    6
 
 SOLVING FOR HEAD 
                                                   Max.-Head-Change                         Max.-Flux-Residual
  Residual-Control   Outer-Iter.   Inner-Iter.     Column Row Layer    Maximum-Head-Change  Column Row Layer    Maximum-Flux-Residual          L2-NORM 
          0                 1           2             4    7     1       0.9298345142E-02       4    7    1         0.4896510646E+00      0.1005417106E+01
          0                 2           2             4    7     1      -0.9044770408E-03       4    7    1        -0.4896521518E-01      0.1019483585E+00
          0                 3           1             4   13     1      -0.9377402897E-04       4   13    1        -0.5530245652E-02      0.1179248967E-01

    ------------------------------------------------
       NWT REQUIRED            3 OUTER ITERATIONS 
       AND A TOTAL OF          5 INNER ITERATIONS.
    ------------------------------------------------

 NO OUTPUT CONTROL FOR STRESS PERIOD   35   TIME STEP    7
 
 SOLVING FOR HEAD 
                                                   Max.-Head-Change                         Max.-Flux-Residual
  Residual-Control   Outer-Iter.   Inner-Iter.     Column Row Layer    Maximum-Head-Change  Column Row Layer    Maximum-Flux-Residual          L2-NORM 
          0                 1           2             4    7     1       0.9174026983E-02       4    7    1         0.4831302583E+00      0.9902727508E+00
          0                 2           2             4    7     1      -0.8923842481E-03       4    7    1        -0.4831313283E-01      0.1004163171E+00
          0                 3           1             4   13     1      -0.9409219095E-04       4   13    1        -0.5548906749E-02      0.1176231449E-01

    ------------------------------------------------
       NWT REQUIRED            3 OUTER ITERATIONS 
       AND A TOTAL OF          5 INNER ITERATIONS.
    ------------------------------------------------

 NO OUTPUT CONTROL FOR STRESS PERIOD   35   TIME STEP    8
 
 SOLVING FOR HEAD 
                                                   Max.-Head-Change                         Max.-Flux-Residual
  Residual-Control   Outer-Iter.   Inner-Iter.     Column Row Layer    Maximum-Head-Change  Column Row Layer    Maximum-Flux-Residual          L2-NORM 
          0                 1           2             4    7     1       0.9050927384E-02       4    7    1         0.4766697114E+00      0.9755734400E+00
          0                 2           2             4    7     1      -0.8804099881E-03       4    7    1        -0.4766707643E-01      0.9893061504E-01
          0                 3           1             4   13     1      -0.9433246977E-04       4   13    1        -0.5562976368E-02      0.1172801774E-01

    ------------------------------------------------
       NWT REQUIRED            3 OUTER ITERATIONS 
       AND A TOTAL OF          5 INNER ITERATIONS.
    ------------------------------------------------

 NO OUTPUT CONTROL FOR STRESS PERIOD   35   TIME STEP    9
 
 SOLVING FOR HEAD 
                                                   Max.-Head-Change                         Max.-Flux-Residual
  Residual-Control   Outer-Iter.   Inner-Iter.     Column Row Layer    Maximum-Head-Change  Column Row Layer    Maximum-Flux-Residual          L2-NORM 
          0                 1           2             4    7     1       0.8929377905E-02       4    7    1         0.4702871269E+00      0.9613092535E+00
          0                 2           2             4    7     1      -0.8685865111E-03       4    7    1        -0.4702881617E-01      0.9749023652E-01
          0                 3           1             4   13     1      -0.9446640354E-04       4   13    1        -0.5570728656E-02      0.1169111827E-01

    ------------------------------------------------
       NWT REQUIRED            3 OUTER ITERATIONS 
       AND A TOTAL OF          5 INNER ITERATIONS.
    ------------------------------------------------

 NO OUTPUT CONTROL FOR STRESS PERIOD   35   TIME STEP   10
 
 SOLVING FOR HEAD 
                                                   Max.-Head-Change                         Max.-Flux-Residual
  Residual-Control   Outer-Iter.   Inner-Iter.     Column Row Layer    Maximum-Head-Change  Column Row Layer    Maximum-Flux-Residual          L2-NORM 
          0                 1           2             4    7     1       0.8808872974E-02       4    7    1         0.4639553532E+00      0.9474529467E+00
          0                 2           2             4    7     1      -0.8568646399E-03       4    7    1        -0.4639563698E-01      0.9609147544E-01
          0                 3           1             4   13     1      -0.9461846135E-04       4   13    1        -0.5579601085E-02      0.1165327924E-01

    ------------------------------------------------
       NWT REQUIRED            3 OUTER ITERATIONS 
       AND A TOTAL OF          5 INNER ITERATIONS.
    ------------------------------------------------

 NO OUTPUT CONTROL FOR STRESS PERIOD   35   TIME STEP   11
 
 SOLVING FOR HEAD 
                                                   Max.-Head-Change                         Max.-Flux-Residual
  Residual-Control   Outer-Iter.   Inner-Iter.     Column Row Layer    Maximum-Head-Change  Column Row Layer    Maximum-Flux-Residual          L2-NORM 
          0                 1           2             4    7     1       0.8690005722E-02       4    7    1         0.4577073010E+00      0.9339823213E+00
          0                 2           2             4    7     1      -0.8453020697E-03       4    7    1        -0.4577082988E-01      0.9473314770E-01
          0                 3           1             4   13     1      -0.9474455564E-04       4   13    1        -0.5586944067E-02      0.1161664341E-01

    ------------------------------------------------
       NWT REQUIRED            3 OUTER ITERATIONS 
       AND A TOTAL OF          5 INNER ITERATIONS.
    ------------------------------------------------

 NO OUTPUT CONTROL FOR STRESS PERIOD   35   TIME STEP   12
 
 SOLVING FOR HEAD 
                                                   Max.-Head-Change                         Max.-Flux-Residual
  Residual-Control   Outer-Iter.   Inner-Iter.     Column Row Layer    Maximum-Head-Change  Column Row Layer    Maximum-Flux-Residual          L2-NORM 
          0                 1           2             4    7     1       0.8572260059E-02       4    7    1         0.4515145981E+00      0.9208865422E+00
          0                 2           2             4    7     1      -0.8338748595E-03       4    7    1        -0.4515155766E-01      0.9346417355E-01
          0                 3           1             4   13     1      -0.9483717622E-04       4   13    1        -0.5592300206E-02      0.1158135714E-01

    ------------------------------------------------
       NWT REQUIRED            3 OUTER ITERATIONS 
       AND A TOTAL OF          5 INNER ITERATIONS.
    ------------------------------------------------

 NO OUTPUT CONTROL FOR STRESS PERIOD   35   TIME STEP   13
 
 SOLVING FOR HEAD 
                                                   Max.-Head-Change                         Max.-Flux-Residual
  Residual-Control   Outer-Iter.   Inner-Iter.     Column Row Layer    Maximum-Head-Change  Column Row Layer    Maximum-Flux-Residual          L2-NORM 
          0                 1           2             4    7     1       0.8456120426E-02       4    7    1         0.4454082163E+00      0.9081198357E+00
          0                 2           2             4    7     1      -0.8225513592E-03       4    7    1        -0.4454091768E-01      0.9212748865E-01
          0                 3           1             4   13     1      -0.9497288711E-04       4   13    1        -0.5600234535E-02      0.1154466435E-01

    ------------------------------------------------
       NWT REQUIRED            3 OUTER ITERATIONS 
       AND A TOTAL OF          5 INNER ITERATIONS.
    ------------------------------------------------

 NO OUTPUT CONTROL FOR STRESS PERIOD   35   TIME STEP   14
 
 SOLVING FOR HEAD 
                                                   Max.-Head-Change                         Max.-Flux-Residual
  Residual-Control   Outer-Iter.   Inner-Iter.     Column Row Layer    Maximum-Head-Change  Column Row Layer    Maximum-Flux-Residual          L2-NORM 
          0                 1           2             4    7     1       0.8341407610E-02       4    7    1         0.4393731140E+00      0.8956413608E+00
          0                 2           2             4    7     1      -0.8113929014E-03       4    7    1        -0.4393740556E-01      0.9087203965E-01
          0                 3           1             4   13     1      -0.9502806090E-04       4   13    1        -0.5603376227E-02      0.1150857092E-01

    ------------------------------------------------
       NWT REQUIRED            3 OUTER ITERATIONS 
       AND A TOTAL OF          5 INNER ITERATIONS.
    ------------------------------------------------

 NO OUTPUT CONTROL FOR STRESS PERIOD   35   TIME STEP   15
 
 SOLVING FOR HEAD 
                                                   Max.-Head-Change                         Max.-Flux-Residual
  Residual-Control   Outer-Iter.   Inner-Iter.     Column Row Layer    Maximum-Head-Change  Column Row Layer    Maximum-Flux-Residual          L2-NORM 
          0                 1           2             4    7     1       0.8228128408E-02       4    7    1         0.4334105957E+00      0.8835003595E+00
          0                 2           2             4    7     1      -0.8003738953E-03       4    7    1        -0.4334115183E-01      0.8965467812E-01
          0                 3           1             4   13     1      -0.9279084942E-04       4   13    1        -0.5471410093E-02      0.1127468450E-01

    ------------------------------------------------
       NWT REQUIRED            3 OUTER ITERATIONS 
       AND A TOTAL OF          5 INNER ITERATIONS.
    ------------------------------------------------

 NO OUTPUT CONTROL FOR STRESS PERIOD   35   TIME STEP   16
 
 SOLVING FOR HEAD 
                                                   Max.-Head-Change                         Max.-Flux-Residual
  Residual-Control   Outer-Iter.   Inner-Iter.     Column Row Layer    Maximum-Head-Change  Column Row Layer    Maximum-Flux-Residual          L2-NORM 
          0                 1           2             4    7     1       0.8116585662E-02       4    7    1         0.4275371918E+00      0.8716935629E+00
          0                 2           2             4    7     1      -0.7895237993E-03       4    7    1        -0.4275380956E-01      0.8847220689E-01
          0                 3           1             4   13     1      -0.9416199572E-04       4   13    1        -0.5552161316E-02      0.1135226141E-01

    ------------------------------------------------
       NWT REQUIRED            3 OUTER ITERATIONS 
       AND A TOTAL OF          5 INNER ITERATIONS.
    ------------------------------------------------

 NO OUTPUT CONTROL FOR STRESS PERIOD   35   TIME STEP   17
 
 SOLVING FOR HEAD 
                                                   Max.-Head-Change                         Max.-Flux-Residual
  Residual-Control   Outer-Iter.   Inner-Iter.     Column Row Layer    Maximum-Head-Change  Column Row Layer    Maximum-Flux-Residual          L2-NORM 
          0                 1           2             4    7     1       0.8006231655E-02       4    7    1         0.4217242560E+00      0.8601769544E+00
          0                 2           2             4    7     1      -0.7787893353E-03       4    7    1        -0.4217251409E-01      0.8731772182E-01
          0                 3           1             4   13     1      -0.9492219039E-04       4   13    1        -0.5596893917E-02      0.1137975408E-01

    ------------------------------------------------
       NWT REQUIRED            3 OUTER ITERATIONS 
       AND A TOTAL OF          5 INNER ITERATIONS.
    ------------------------------------------------

 NO OUTPUT CONTROL FOR STRESS PERIOD   35   TIME STEP   18
 
 SOLVING FOR HEAD 
                                                   Max.-Head-Change                         Max.-Flux-Residual
  Residual-Control   Outer-Iter.   Inner-Iter.     Column Row Layer    Maximum-Head-Change  Column Row Layer    Maximum-Flux-Residual          L2-NORM 
          0                 1           2             4    7     1       0.7897644148E-02       4    7    1         0.4160025211E+00      0.8489699363E+00
          0                 2           2             4    7     1      -0.7682267033E-03       4    7    1        -0.4160033870E-01      0.8619491200E-01
          0                 3           1             4   13     1      -0.9534216367E-04       4   13    1        -0.5621596430E-02      0.1137805119E-01

    ------------------------------------------------
       NWT REQUIRED            3 OUTER ITERATIONS 
       AND A TOTAL OF          5 INNER ITERATIONS.
    ------------------------------------------------

 NO OUTPUT CONTROL FOR STRESS PERIOD   35   TIME STEP   19
 
 SOLVING FOR HEAD 
                                                   Max.-Head-Change                         Max.-Flux-Residual
  Residual-Control   Outer-Iter.   Inner-Iter.     Column Row Layer    Maximum-Head-Change  Column Row Layer    Maximum-Flux-Residual          L2-NORM 
          0                 1           2             4    7     1       0.7790549163E-02       4    7    1         0.4103575943E+00      0.8380410030E+00
          0                 2           2             4    7     1      -0.7578092540E-03       4    7    1        -0.4103584416E-01      0.8509942719E-01
          0                 3           1             4   13     1      -0.9559437524E-04       4   13    1        -0.5636386521E-02      0.1136456169E-01

    ------------------------------------------------
       NWT REQUIRED            3 OUTER ITERATIONS 
       AND A TOTAL OF          5 INNER ITERATIONS.
    ------------------------------------------------

 NO OUTPUT CONTROL FOR STRESS PERIOD   35   TIME STEP   20
 
 SOLVING FOR HEAD 
                                                   Max.-Head-Change                         Max.-Flux-Residual
  Residual-Control   Outer-Iter.   Inner-Iter.     Column Row Layer    Maximum-Head-Change  Column Row Layer    Maximum-Flux-Residual          L2-NORM 
          0                 1           2             4    7     1       0.7684952186E-02       4    7    1         0.4047900533E+00      0.8273806854E+00
          0                 2           2             4    7     1      -0.7475375190E-03       4    7    1        -0.4047908817E-01      0.8403136805E-01
          0                 3           1             4   13     1      -0.9573135526E-04       4   13    1        -0.5644483585E-02      0.1133844908E-01

    ------------------------------------------------
       NWT REQUIRED            3 OUTER ITERATIONS 
       AND A TOTAL OF          5 INNER ITERATIONS.
    ------------------------------------------------

 NO OUTPUT CONTROL FOR STRESS PERIOD   35   TIME STEP   21
 
 SOLVING FOR HEAD 
                                                   Max.-Head-Change                         Max.-Flux-Residual
  Residual-Control   Outer-Iter.   Inner-Iter.     Column Row Layer    Maximum-Head-Change  Column Row Layer    Maximum-Flux-Residual          L2-NORM 
          0                 1           2             4    7     1       0.7580864429E-02       4    7    1         0.3993001823E+00      0.8169984609E+00
          0                 2           2             4    7     1      -0.7374125908E-03       4    7    1        -0.3993009920E-01      0.8299183536E-01
          0                 3           1             4   13     1      -0.9580762089E-04       4   13    1        -0.5648823430E-02      0.1131567649E-01

    ------------------------------------------------
       NWT REQUIRED            3 OUTER ITERATIONS 
       AND A TOTAL OF          5 INNER ITERATIONS.
    ------------------------------------------------

 NO OUTPUT CONTROL FOR STRESS PERIOD   35   TIME STEP   22
 
 SOLVING FOR HEAD 
                                                   Max.-Head-Change                         Max.-Flux-Residual
  Residual-Control   Outer-Iter.   Inner-Iter.     Column Row Layer    Maximum-Head-Change  Column Row Layer    Maximum-Flux-Residual          L2-NORM 
          0                 1           2             4    7     1       0.7478281131E-02       4    7    1         0.3938885628E+00      0.8068519267E+00
          0                 2           2             4    7     1      -0.7274340057E-03       4    7    1        -0.3938893540E-01      0.8197664595E-01
          0                 3           1             4   13     1      -0.9587073269E-04       4   13    1        -0.5652482782E-02      0.1128821467E-01

    ------------------------------------------------
       NWT REQUIRED            3 OUTER ITERATIONS 
       AND A TOTAL OF          5 INNER ITERATIONS.
    ------------------------------------------------

 NO OUTPUT CONTROL FOR STRESS PERIOD   35   TIME STEP   23
 
 SOLVING FOR HEAD 
                                                   Max.-Head-Change                         Max.-Flux-Residual
  Residual-Control   Outer-Iter.   Inner-Iter.     Column Row Layer    Maximum-Head-Change  Column Row Layer    Maximum-Flux-Residual          L2-NORM 
          0                 1           2             4    7     1       0.7377479630E-02       4    7    1         0.3885697321E+00      0.7969566859E+00
          0                 2           2             4    7     1      -0.7176287408E-03       4    7    1        -0.3885705050E-01      0.8098725872E-01
          0                 3           1             4   13     1      -0.9589122799E-04       4   13    1        -0.5653621482E-02      0.1125903487E-01

    ------------------------------------------------
       NWT REQUIRED            3 OUTER ITERATIONS 
       AND A TOTAL OF          5 INNER ITERATIONS.
    ------------------------------------------------

 NO OUTPUT CONTROL FOR STRESS PERIOD   35   TIME STEP   24
 
 SOLVING FOR HEAD 
                                                   Max.-Head-Change                         Max.-Flux-Residual
  Residual-Control   Outer-Iter.   Inner-Iter.     Column Row Layer    Maximum-Head-Change  Column Row Layer    Maximum-Flux-Residual          L2-NORM 
          0                 1           2             4    7     1       0.7278170263E-02       4    7    1         0.3833285013E+00      0.7873046587E+00
          0                 2           2             4    7     1      -0.7079686211E-03       4    7    1        -0.3833292566E-01      0.8002272601E-01
          0                 3           1             4   13     1      -0.9592960160E-04       4   13    1        -0.5655839090E-02      0.1123079327E-01

    ------------------------------------------------
       NWT REQUIRED            3 OUTER ITERATIONS 
       AND A TOTAL OF          5 INNER ITERATIONS.
    ------------------------------------------------

 NO OUTPUT CONTROL FOR STRESS PERIOD   35   TIME STEP   25
 
 SOLVING FOR HEAD 
                                                   Max.-Head-Change                         Max.-Flux-Residual
  Residual-Control   Outer-Iter.   Inner-Iter.     Column Row Layer    Maximum-Head-Change  Column Row Layer    Maximum-Flux-Residual          L2-NORM 
          0                 1           2             4    7     1       0.7180353085E-02       4    7    1         0.3781646360E+00      0.7778812297E+00
          0                 2           2             4    7     1      -0.6984536506E-03       4    7    1        -0.3781653735E-01      0.7908147370E-01
          0                 3           1             4   13     1      -0.9593841656E-04       4   13    1        -0.5656296251E-02      0.1120269556E-01

    ------------------------------------------------
       NWT REQUIRED            3 OUTER ITERATIONS 
       AND A TOTAL OF          5 INNER ITERATIONS.
    ------------------------------------------------

 NO OUTPUT CONTROL FOR STRESS PERIOD   35   TIME STEP   26
 
 SOLVING FOR HEAD 
                                                   Max.-Head-Change                         Max.-Flux-Residual
  Residual-Control   Outer-Iter.   Inner-Iter.     Column Row Layer    Maximum-Head-Change  Column Row Layer    Maximum-Flux-Residual          L2-NORM 
          0                 1           2             4    7     1       0.7084289725E-02       4    7    1         0.3730929240E+00      0.7686832349E+00
          0                 2           2             4    7     1      -0.6891092788E-03       4    7    1        -0.3730936440E-01      0.7816342550E-01
          0                 3           1             4   13     1      -0.9593708672E-04       4   13    1        -0.5656157615E-02      0.1117513198E-01

    ------------------------------------------------
       NWT REQUIRED            3 OUTER ITERATIONS 
       AND A TOTAL OF          5 INNER ITERATIONS.
    ------------------------------------------------

 NO OUTPUT CONTROL FOR STRESS PERIOD   35   TIME STEP   27
 
 SOLVING FOR HEAD 
                                                   Max.-Head-Change                         Max.-Flux-Residual
  Residual-Control   Outer-Iter.   Inner-Iter.     Column Row Layer    Maximum-Head-Change  Column Row Layer    Maximum-Flux-Residual          L2-NORM 
          0                 1           2             4    7     1       0.6989688111E-02       4    7    1         0.3680973604E+00      0.7596887308E+00
          0                 2           2             4    7     1      -0.6799070959E-03       4    7    1        -0.3680980633E-01      0.7726641219E-01
          0                 3           1             4   13     1      -0.9594926045E-04       4   13    1        -0.5656794162E-02      0.1114871728E-01

    ------------------------------------------------
       NWT REQUIRED            3 OUTER ITERATIONS 
       AND A TOTAL OF          5 INNER ITERATIONS.
    ------------------------------------------------

 NO OUTPUT CONTROL FOR STRESS PERIOD   35   TIME STEP   28
 
 SOLVING FOR HEAD 
                                                   Max.-Head-Change                         Max.-Flux-Residual
  Residual-Control   Outer-Iter.   Inner-Iter.     Column Row Layer    Maximum-Head-Change  Column Row Layer    Maximum-Flux-Residual          L2-NORM 
          0                 1           2             4    7     1       0.6896541363E-02       4    7    1         0.3631775866E+00      0.7509052222E+00
          0                 2           2             4    7     1      -0.6708464319E-03       4    7    1        -0.3631782724E-01      0.7639115950E-01
          0                 3           1             4   13     1      -0.9597740096E-04       4   13    1        -0.5658450084E-02      0.1112254260E-01

    ------------------------------------------------
       NWT REQUIRED            3 OUTER ITERATIONS 
       AND A TOTAL OF          5 INNER ITERATIONS.
    ------------------------------------------------

 NO OUTPUT CONTROL FOR STRESS PERIOD   35   TIME STEP   29
 
 SOLVING FOR HEAD 
                                                   Max.-Head-Change                         Max.-Flux-Residual
  Residual-Control   Outer-Iter.   Inner-Iter.     Column Row Layer    Maximum-Head-Change  Column Row Layer    Maximum-Flux-Residual          L2-NORM 
          0                 1           2             4    7     1       0.6804839156E-02       4    7    1         0.3583332458E+00      0.7423192418E+00
          0                 2           2             4    7     1      -0.6619262837E-03       4    7    1        -0.3583339154E-01      0.7553541232E-01
          0                 3           1             4   13     1      -0.9599627738E-04       4   13    1        -0.5659532278E-02      0.1109662858E-01

    ------------------------------------------------
       NWT REQUIRED            3 OUTER ITERATIONS 
       AND A TOTAL OF          5 INNER ITERATIONS.
    ------------------------------------------------

 NO OUTPUT CONTROL FOR STRESS PERIOD   35   TIME STEP   30



 STREAM LISTING     PERIOD     35   STEP       30

 LAYER ROW COL. STREAM  RCH.  FLOW INTO     FLOW TO   FLOW OUT OF   OVRLND.     DIRECT     STREAM       STREAM     STREAM     STREAM   STREAMBED  STREAMBED
                SEG.NO.  NO.  STRM. RCH.    AQUIFER    STRM. RCH.    RUNOFF     PRECIP       ET          HEAD       DEPTH      WIDTH   CONDCTNC.   GRADIENT

   1    1    1     1     1    2.6249E+01  2.5084E-01   2.5998E+01  0.000E+00  0.000E+00  0.000E+00  1.09424E+03  1.197E+00  1.328E+01  5.977E-02  1.399E+00
   1    2    2     1     2    2.5998E+01  3.8795E-01   2.5610E+01  0.000E+00  0.000E+00  0.000E+00  1.08925E+03  1.192E+00  1.322E+01  9.254E-02  1.397E+00
   1    3    3     1     3    2.5610E+01  3.3035E-01   2.5280E+01  0.000E+00  0.000E+00  0.000E+00  1.08361E+03  1.187E+00  1.315E+01  7.890E-02  1.396E+00
   1    3    4     1     4    2.5280E+01  3.0378E-01   2.4976E+01  0.000E+00  0.000E+00  0.000E+00  1.07859E+03  1.182E+00  1.309E+01  7.264E-02  1.394E+00
   1    4    5     2     1    2.2976E+01  3.2316E-01   2.2653E+01  0.000E+00  0.000E+00  0.000E+00  1.07308E+03  1.143E+00  1.200E+01  7.800E-02  1.381E+00
   1    5    6     2     2    2.2653E+01  2.4807E-01   2.2405E+01  0.000E+00  0.000E+00  0.000E+00  1.06764E+03  1.134E+00  1.200E+01  6.000E-02  1.378E+00
   1    6    6     2     3    2.2405E+01  2.4762E-01   2.2157E+01  0.000E+00  0.000E+00  0.000E+00  1.06292E+03  1.127E+00  1.200E+01  6.000E-02  1.376E+00
   1    7    6     2     4    2.2157E+01  2.4717E-01   2.1910E+01  0.000E+00  0.000E+00  0.000E+00  1.05819E+03  1.119E+00  1.200E+01  6.000E-02  1.373E+00
   1    8    6     2     5    2.1910E+01  2.4671E-01   2.1664E+01  0.000E+00  0.000E+00  0.000E+00  1.05347E+03  1.112E+00  1.200E+01  6.000E-02  1.371E+00
   1    3    5     3     1    2.0000E+00  2.8252E-01   1.7175E+00  0.000E+00  0.000E+00  0.000E+00  1.07555E+03  1.909E+00  9.636E+00  7.227E-02  1.955E+00
   1    3    6     3     2    1.7175E+00  2.4905E-01   1.4684E+00  0.000E+00  0.000E+00  0.000E+00  1.07264E+03  1.727E+00  8.909E+00  6.682E-02  1.864E+00
   1    3    7     3     3    1.4684E+00  1.9718E-01   1.2712E+00  0.000E+00  0.000E+00  0.000E+00  1.06987E+03  1.555E+00  8.218E+00  5.547E-02  1.777E+00
   1    4    8     3     4    1.2712E+00  2.2567E-01   1.0456E+00  0.000E+00  0.000E+00  0.000E+00  1.06682E+03  1.364E+00  7.455E+00  6.709E-02  1.682E+00
   1    5    8     3     5    1.0456E+00  1.5790E-01   8.8768E-01  0.000E+00  0.000E+00  0.000E+00  1.06362E+03  1.164E+00  6.655E+00  4.991E-02  1.582E+00
   1    6    8     3     6    8.8768E-01  5.5980E-02   8.3170E-01  0.000E+00  0.000E+00  0.000E+00  1.06158E+03  1.036E+00  6.145E+00  1.844E-02  1.518E+00
   1    5   10     4     1    1.0000E+01  9.0919E-02   9.9091E+00  0.000E+00  0.000E+00  0.000E+00  1.07836E+03  6.368E-01  1.000E+01  2.500E-02  1.212E+00
   1    5    9     4     2    9.9091E+00  1.8158E-01   9.7275E+00  0.000E+00  0.000E+00  0.000E+00  1.07154E+03  6.315E-01  1.000E+01  5.000E-02  1.211E+00
   1    6    8     4     3    9.7275E+00  1.2689E-01   9.6006E+00  0.000E+00  0.000E+00  0.000E+00  1.06381E+03  6.256E-01  1.000E+01  3.500E-02  1.209E+00
   1    6    8     5     1    1.0432E+01  2.2686E-01   1.0205E+01  0.000E+00  0.000E+00  0.000E+00  1.05868E+03  6.790E-01  1.542E+01  6.166E-02  1.226E+00
   1    7    7     5     2    1.0205E+01  2.7894E-01   9.9265E+00  0.000E+00  0.000E+00  0.000E+00  1.05417E+03  6.732E-01  1.519E+01  7.594E-02  1.224E+00
   1    8    7     5     3    9.9265E+00  1.9221E-01   9.7343E+00  0.000E+00  0.000E+00  0.000E+00  1.04992E+03  6.676E-01  1.497E+01  5.241E-02  1.223E+00
   1    8    6     5     4    9.7343E+00  1.3577E-01   9.5985E+00  0.000E+00  0.000E+00  0.000E+00  1.04691E+03  6.637E-01  1.482E+01  3.706E-02  1.221E+00
   1    9    6     6     1    3.0692E+01  2.6265E-01   3.0429E+01  0.000E+00  0.000E+00  0.000E+00  1.04410E+03  1.378E+00  1.200E+01  6.000E-02  1.459E+00
   1   10    7     6     2    3.0429E+01  2.6223E-01   3.0167E+01  0.000E+00  0.000E+00  0.000E+00  1.03955E+03  1.370E+00  1.200E+01  6.000E-02  1.457E+00
   1   11    7     6     3    3.0167E+01  2.6180E-01   2.9905E+01  0.000E+00  0.000E+00  0.000E+00  1.03500E+03  1.363E+00  1.200E+01  6.000E-02  1.454E+00
   1   12    7     6     4    2.9905E+01  2.6137E-01   2.9644E+01  0.000E+00  0.000E+00  0.000E+00  1.03045E+03  1.356E+00  1.200E+01  6.000E-02  1.452E+00
   1   13    7     6     5    2.9644E+01  4.8523E-03   2.9639E+01  0.000E+00  0.000E+00  0.000E+00  1.02726E+03  1.353E+00  1.200E+01  2.400E-02  6.739E-02
   1   14    9     7     1    1.5000E+02  1.3405E+00   1.4866E+02  0.000E+00  0.000E+00  0.000E+00  1.03987E+03  2.288E+00  5.529E+01  5.593E-01  7.989E-01
   1   13    8     7     2    1.4866E+02  1.8432E+00   1.4682E+02  0.000E+00  0.000E+00  0.000E+00  1.03478E+03  2.279E+00  5.526E+01  6.148E-01  9.994E-01
   1   13    7     7     3    1.4682E+02  1.4689E+00   1.4535E+02  0.000E+00  0.000E+00  0.000E+00  1.02969E+03  2.270E+00  5.522E+01  5.584E-01  8.768E-01
   1   13    6     8     1    1.7499E+02  9.3479E-01   1.7405E+02  0.000E+00  0.000E+00  0.000E+00  1.02486E+03  2.981E+00  4.323E+01  4.405E-01  7.073E-01
   1   13    5     8     2    1.7405E+02  1.7423E-01   1.7388E+02  0.000E+00  0.000E+00  0.000E+00  1.01860E+03  2.978E+00  4.318E+01  4.400E-01  1.320E-01
   1   13    4     8     3    1.7388E+02 -2.4699E+00   1.7635E+02  0.000E+00  0.000E+00  0.000E+00  1.01236E+03  2.985E+00  4.329E+01  4.411E+00 -1.866E-01
   1   13    3     8     4    1.7635E+02 -3.6539E+00   1.8000E+02  0.000E+00  0.000E+00  0.000E+00  1.00613E+03  3.005E+00  4.357E+01  4.440E+00 -2.743E-01
   1   13    2     8     5    1.8000E+02 -2.5614E+00   1.8256E+02  0.000E+00  0.000E+00  0.000E+00  9.99899E+02  3.024E+00  4.385E+01  4.469E+00 -1.911E-01
   1   13    1     8     6    1.8256E+02 -1.9628E+00   1.8453E+02  0.000E+00  0.000E+00  0.000E+00  9.94913E+02  3.038E+00  4.406E+01  2.694E+00 -2.429E-01
   1    8    6     9     1    5.7024E-01  0.0000E+00   5.7024E-01  0.000E+00  0.000E+00  0.000E+00  1.07915E+03  4.039E-01  4.000E+00  0.000E+00  1.135E+00
   1    8    5     9     2    5.7024E-01  0.0000E+00   5.7024E-01  0.000E+00  0.000E+00  0.000E+00  1.07865E+03  4.039E-01  4.000E+00  0.000E+00  1.135E+00





UNSATURATED ZONE PACKAGE VOLUMETRIC BUDGET FOR  TIME STEP    30 STRESS PERIOD   35
  ------------------------------------------------------------------------------



     CUMULATIVE VOLUMES      L**3       RATES FOR THIS TIME STEP      L**3/T
     ------------------                 ------------------------

           IN:                                      IN:
           ---                                      ---
        INFILTRATION =  1588438581.0754          INFILTRATION =           4.9777

          OUT:                                     OUT:
          ----                                     ----
              UZF ET =  1489502835.4058                UZF ET =           4.2281
        UZF RECHARGE =     1188452.4670          UZF RECHARGE =       0.0000E+00

            IN - OUT =    97747293.2027              IN - OUT =           0.7496

          STORAGE:                                 STORAGE:
          --------                                 --------
      STORAGE CHANGE =    97748256.5054        STORAGE CHANGE =           0.7496

 PERCENT DISCREPANCY IS DIFFERENCE BETWEEN IN-OUT MINUS CHANGE IN STORAGE
 DIVIDED BY THE AVERAGE OF IN AND OUT TIMES 100

 PERCENT DISCREPANCY =          -0.00     PERCENT DISCREPANCY =           0.00






1
  VOLUMETRIC BUDGET FOR ENTIRE MODEL AT END OF TIME STEP   30, STRESS PERIOD  35
  ------------------------------------------------------------------------------

     CUMULATIVE VOLUMES      L**3       RATES FOR THIS TIME STEP      L**3/T
     ------------------                 ------------------------

           IN:                                      IN:
           ---                                      ---
               AG WELLS  =   219671824.0000                 AG WELLS  =           0.0000
      DIVERSION SEGMENTS =   974557696.0000        DIVERSION SEGMENTS =           0.5702
           GW IRRIGATION =           0.0000             GW IRRIGATION =           0.0000
           SW IRRIGATION =           0.0000             SW IRRIGATION =           0.0000
        SYSTEM LOSSES GW =           0.0000          SYSTEM LOSSES GW =           0.0000
        SYSTEM LOSSES SW =           0.0000          SYSTEM LOSSES SW =           0.0000

                TOTAL IN =  1194229504.0000                  TOTAL IN =           0.5702

          OUT:                                     OUT:
          ----                                     ----
               AG WELLS  =           0.0000                 AG WELLS  =           0.0000
      DIVERSION SEGMENTS =           0.0000        DIVERSION SEGMENTS =           0.0000
           GW IRRIGATION =   219671824.0000             GW IRRIGATION =           0.0000
           SW IRRIGATION =   974577408.0000             SW IRRIGATION =           0.5702
        SYSTEM LOSSES GW =           0.0000          SYSTEM LOSSES GW =           0.0000
        SYSTEM LOSSES SW =           0.0000          SYSTEM LOSSES SW =           0.0000

               TOTAL OUT =  1194249216.0000                 TOTAL OUT =           0.5702

                IN - OUT =      -19712.0000                  IN - OUT =      -1.1384E-05

     PERCENT DISCREPANCY =          -0.00         PERCENT DISCREPANCY =          -0.00



1
  VOLUMETRIC BUDGET FOR ENTIRE MODEL AT END OF TIME STEP   30, STRESS PERIOD  35
  ------------------------------------------------------------------------------

     CUMULATIVE VOLUMES      L**3       RATES FOR THIS TIME STEP      L**3/T
     ------------------                 ------------------------

           IN:                                      IN:
           ---                                      ---
             STORAGE     =   365798656.0000               STORAGE     =           1.3092
       CONSTANT HEAD     =           0.0000         CONSTANT HEAD     =           0.0000
     HEAD DEP BOUNDS     =    25583826.0000       HEAD DEP BOUNDS     =           0.2861
      STREAM LEAKAGE     =  1069982080.0000        STREAM LEAKAGE     =          11.8016
        UZF RECHARGE     =     1188452.5000          UZF RECHARGE     =           0.0000
               GW ET     =           0.0000                 GW ET     =           0.0000
     SURFACE LEAKAGE     =           0.0000       SURFACE LEAKAGE     =           0.0000
           AG WELLS      =           0.0000             AG WELLS      =           0.0000

                TOTAL IN =  1462553088.0000                  TOTAL IN =          13.3969

          OUT:                                     OUT:
          ----                                     ----
             STORAGE     =   244882432.0000               STORAGE     =           2.4572
       CONSTANT HEAD     =           0.0000         CONSTANT HEAD     =           0.0000
     HEAD DEP BOUNDS     =    26020446.0000       HEAD DEP BOUNDS     =           0.2904
      STREAM LEAKAGE     =   968715264.0000        STREAM LEAKAGE     =          10.6480
        UZF RECHARGE     =           0.0000          UZF RECHARGE     =           0.0000
               GW ET     =     3265349.0000                 GW ET     =           0.0000
     SURFACE LEAKAGE     =           0.0000       SURFACE LEAKAGE     =           0.0000
           AG WELLS      =   219671824.0000             AG WELLS      =           0.0000

               TOTAL OUT =  1462555392.0000                 TOTAL OUT =          13.3956

                IN - OUT =       -2304.0000                  IN - OUT =       1.2579E-03

     PERCENT DISCREPANCY =          -0.00         PERCENT DISCREPANCY =           0.01






         TIME SUMMARY AT END OF TIME STEP   30 IN STRESS PERIOD   35
                    SECONDS     MINUTES      HOURS       DAYS        YEARS
                    -----------------------------------------------------------
   TIME STEP LENGTH  87667.      1461.1      24.352      1.0147     2.77799E-03
 STRESS PERIOD TIME 2.63000E+06  43833.      730.56      30.440     8.33397E-02
         TOTAL TIME 8.95061E+07 1.49177E+06  24863.      1036.0      2.8363    
1
1
                            STRESS PERIOD NO.   36, LENGTH =   2630000.    
                            -----------------------------------------------

                              NUMBER OF TIME STEPS =    30

                               MULTIPLIER FOR DELT =     1.000

                            INITIAL TIME STEP SIZE =   87666.66    

 REUSING NON-PARAMETER GHB CELLS FROM LAST STRESS PERIOD

      2 GHB CELLS

 REUSING STREAM SEGMENT DATA FROM LAST STRESS PERIOD



            AREAL INFILTRATION RATE
 READING ON UNIT   19 WITH FORMAT: (10F4.0)            

            1           2           3           4           5           6           7           8           9          10
 ........................................................................................................................
   1   1.2000E-09   0.000       0.000       0.000       0.000       0.000       0.000       0.000       0.000       0.000    
   2   2.1000E-09  2.0000E-09  8.0000E-10  8.5000E-09   0.000       0.000       0.000       0.000       0.000       0.000    
   3   5.0000E-10  1.1000E-09  8.8000E-09  5.5000E-09   0.000       0.000       0.000       0.000       0.000       0.000    
   4   8.5000E-09  1.1000E-09  1.1000E-09  1.1000E-09  2.0000E-09   0.000       0.000       0.000       0.000       0.000    
   5   8.5000E-09  1.1000E-09  1.1000E-09  1.1000E-09  1.1000E-09   0.000       0.000       0.000       0.000       0.000    
   6   8.5000E-09  5.2000E-09  2.1000E-09  1.1000E-09  1.5000E-09   0.000       0.000       0.000       0.000       0.000    
   7   8.5000E-09  5.2000E-09  2.1000E-09  1.2000E-09  2.0000E-09   0.000       0.000       0.000       0.000       0.000    
   8   5.0000E-10  5.2000E-09  2.1000E-09  1.2000E-09  5.0000E-09   0.000       0.000       0.000       0.000       0.000    
   9   5.0000E-10  5.2000E-09  2.1000E-09  1.2000E-09  5.0000E-09   0.000       0.000       0.000       0.000       0.000    
  10   5.0000E-10  5.2000E-09  2.1000E-09  1.2000E-09  5.8000E-09   0.000       0.000       0.000       0.000       0.000    
  11   1.0000E-10  1.1000E-09  1.1000E-09  1.2000E-09  5.0000E-09   0.000       0.000       0.000       0.000       0.000    
  12   1.1000E-09  1.1000E-09  1.1000E-09  1.1000E-09  2.0000E-09   0.000       0.000       0.000       0.000       0.000    
  13   1.1000E-09  2.2000E-09  2.2000E-09  2.1000E-09  1.0000E-09   0.000       0.000       0.000       0.000       0.000    
  14   2.0000E-10  5.5000E-09  5.5000E-09  5.2000E-09  1.0000E-09   0.000       0.000       0.000       0.000       0.000    
  15    0.000      8.8000E-09  8.8000E-09   0.000       0.000       0.000       0.000       0.000       0.000       0.000    

                  ET RATE =  5.000000E-10

 USING ET EXTINCTION DEPTH FROM PREVIOUS STRESS PERIOD. CURRENT PERIOD IS:      36

 USING EXTINCTION WATER CONTENT FROM PREVIOUS STRESS PERIOD. CURRENT PERIOD IS:      36

 USING AIR ENTRY PRESSURE FROM PREVIOUS STRESS PERIOD. CURRENT PERIOD IS:      36

 USING ROOT PRESSURE HEAD FROM PREVIOUS STRESS PERIOD. CURRENT PERIOD IS:      36

 USING ROOT ACTIVITY FROM PREVIOUS STRESS PERIOD. CURRENT PERIOD IS:      36

 PROCESSING AG STRESS PERIOD DATA

 READING AG STRESS PERIOD DATA

 READING IRRIGATION SEGMENT

 READING IRRIGATION WELL

 READING SUPPLEMENTAL WELL

 END PROCESSING AG STRESS PERIOD DATA OPTIONS
 
 SOLVING FOR HEAD 
                                                   Max.-Head-Change                         Max.-Flux-Residual
  Residual-Control   Outer-Iter.   Inner-Iter.     Column Row Layer    Maximum-Head-Change  Column Row Layer    Maximum-Flux-Residual          L2-NORM 
          0                 1           2             4    7     1       0.6714836399E-02       4    7    1         0.3535785888E+00      0.7339192272E+00
          0                 2           2             4    7     1      -0.6531714431E-03       4    7    1        -0.3535792421E-01      0.7338764022E-01
          0                 3           1             4    7     1       0.4447854497E-04       4    7    1         0.2475055130E-02      0.5136763069E-02

    ------------------------------------------------
       NWT REQUIRED            3 OUTER ITERATIONS 
       AND A TOTAL OF          5 INNER ITERATIONS.
    ------------------------------------------------

 NO OUTPUT CONTROL FOR STRESS PERIOD   36   TIME STEP    1
 
 SOLVING FOR HEAD 
                                                   Max.-Head-Change                         Max.-Flux-Residual
  Residual-Control   Outer-Iter.   Inner-Iter.     Column Row Layer    Maximum-Head-Change  Column Row Layer    Maximum-Flux-Residual          L2-NORM 
          0                 1           2             4    7     1       0.6626188117E-02       4    7    1         0.3488972605E+00      0.7603033913E+00
          0                 2           2             4    7     1      -0.6445483593E-03       4    7    1        -0.3488978981E-01      0.7588873774E-01
          0                 3           1             4    7     1       0.4389134533E-04       4    7    1         0.2442285751E-02      0.5299302933E-02

    ------------------------------------------------
       NWT REQUIRED            3 OUTER ITERATIONS 
       AND A TOTAL OF          5 INNER ITERATIONS.
    ------------------------------------------------

 NO OUTPUT CONTROL FOR STRESS PERIOD   36   TIME STEP    2
 
 SOLVING FOR HEAD 
                                                   Max.-Head-Change                         Max.-Flux-Residual
  Residual-Control   Outer-Iter.   Inner-Iter.     Column Row Layer    Maximum-Head-Change  Column Row Layer    Maximum-Flux-Residual          L2-NORM 
          0                 1           2             4    7     1       0.6538882135E-02       4    7    1         0.3442861590E+00      0.7539953173E+00
          0                 2           2             4    7     1      -0.6360558447E-03       4    7    1        -0.3442867810E-01      0.7525422824E-01
          0                 3           1             4    7     1       0.4331303655E-04       4    7    1         0.2410007933E-02      0.5254844489E-02

    ------------------------------------------------
       NWT REQUIRED            3 OUTER ITERATIONS 
       AND A TOTAL OF          5 INNER ITERATIONS.
    ------------------------------------------------

 NO OUTPUT CONTROL FOR STRESS PERIOD   36   TIME STEP    3
 
 SOLVING FOR HEAD 
                                                   Max.-Head-Change                         Max.-Flux-Residual
  Residual-Control   Outer-Iter.   Inner-Iter.     Column Row Layer    Maximum-Head-Change  Column Row Layer    Maximum-Flux-Residual          L2-NORM 
          0                 1           2             4    7     1       0.6453175179E-02       4    7    1         0.3397594406E+00      0.7419570490E+00
          0                 2           2             4    7     1      -0.6277188724E-03       4    7    1        -0.3397600477E-01      0.7406923530E-01
          0                 3           1             4    7     1       0.4274531962E-04       4    7    1         0.2378320775E-02      0.5173313391E-02

    ------------------------------------------------
       NWT REQUIRED            3 OUTER ITERATIONS 
       AND A TOTAL OF          5 INNER ITERATIONS.
    ------------------------------------------------

 NO OUTPUT CONTROL FOR STRESS PERIOD   36   TIME STEP    4
 
 SOLVING FOR HEAD 
                                                   Max.-Head-Change                         Max.-Flux-Residual
  Residual-Control   Outer-Iter.   Inner-Iter.     Column Row Layer    Maximum-Head-Change  Column Row Layer    Maximum-Flux-Residual          L2-NORM 
          0                 1           2             4    7     1       0.6368774729E-02       4    7    1         0.3353008432E+00      0.7306620264E+00
          0                 2           2             4    7     1      -0.6195089884E-03       4    7    1        -0.3353014355E-01      0.7295665089E-01
          0                 3           1             4    7     1       0.4218625783E-04       4    7    1         0.2347110509E-02      0.5096937932E-02

    ------------------------------------------------
       NWT REQUIRED            3 OUTER ITERATIONS 
       AND A TOTAL OF          5 INNER ITERATIONS.
    ------------------------------------------------

 NO OUTPUT CONTROL FOR STRESS PERIOD   36   TIME STEP    5
 
 SOLVING FOR HEAD 
                                                   Max.-Head-Change                         Max.-Flux-Residual
  Residual-Control   Outer-Iter.   Inner-Iter.     Column Row Layer    Maximum-Head-Change  Column Row Layer    Maximum-Flux-Residual          L2-NORM 
          0                 1           2             4    7     1       0.6285664092E-02       4    7    1         0.3309099866E+00      0.7200029748E+00
          0                 2           2             4    7     1      -0.6114245685E-03       4    7    1        -0.3309105647E-01      0.7190493051E-01
          0                 3           1             4    7     1       0.4163573852E-04       4    7    1         0.2316374392E-02      0.5024469439E-02

    ------------------------------------------------
       NWT REQUIRED            3 OUTER ITERATIONS 
       AND A TOTAL OF          5 INNER ITERATIONS.
    ------------------------------------------------

 NO OUTPUT CONTROL FOR STRESS PERIOD   36   TIME STEP    6
 
 SOLVING FOR HEAD 
                                                   Max.-Head-Change                         Max.-Flux-Residual
  Residual-Control   Outer-Iter.   Inner-Iter.     Column Row Layer    Maximum-Head-Change  Column Row Layer    Maximum-Flux-Residual          L2-NORM 
          0                 1           2             4    7     1       0.6204107546E-02       4    7    1         0.3266007923E+00      0.7099251243E+00
          0                 2           2             4    7     1      -0.6034913192E-03       4    7    1        -0.3266013559E-01      0.7090958961E-01
          0                 3           1             4    7     1       0.4109551403E-04       4    7    1         0.2286209951E-02      0.4955940449E-02

    ------------------------------------------------
       NWT REQUIRED            3 OUTER ITERATIONS 
       AND A TOTAL OF          5 INNER ITERATIONS.
    ------------------------------------------------

 NO OUTPUT CONTROL FOR STRESS PERIOD   36   TIME STEP    7
 
 SOLVING FOR HEAD 
                                                   Max.-Head-Change                         Max.-Flux-Residual
  Residual-Control   Outer-Iter.   Inner-Iter.     Column Row Layer    Maximum-Head-Change  Column Row Layer    Maximum-Flux-Residual          L2-NORM 
          0                 1           2             4    7     1       0.6123808344E-02       4    7    1         0.3223573887E+00      0.7003570215E+00
          0                 2           2             4    7     1      -0.5956803758E-03       4    7    1        -0.3223579383E-01      0.6996426886E-01
          0                 3           1             4    7     1       0.4056361807E-04       4    7    1         0.2256506030E-02      0.4891062046E-02

    ------------------------------------------------
       NWT REQUIRED            3 OUTER ITERATIONS 
       AND A TOTAL OF          5 INNER ITERATIONS.
    ------------------------------------------------

 NO OUTPUT CONTROL FOR STRESS PERIOD   36   TIME STEP    8
 
 SOLVING FOR HEAD 
                                                   Max.-Head-Change                         Max.-Flux-Residual
  Residual-Control   Outer-Iter.   Inner-Iter.     Column Row Layer    Maximum-Head-Change  Column Row Layer    Maximum-Flux-Residual          L2-NORM 
          0                 1           2             4    7     1       0.6045020575E-02       4    7    1         0.3181939643E+00      0.6912336187E+00
          0                 2           2             4    7     1      -0.5880164541E-03       4    7    1        -0.3181945005E-01      0.6906090863E-01
          0                 3           1             4    7     1       0.4004173339E-04       4    7    1         0.2227361955E-02      0.4828507168E-02

    ------------------------------------------------
       NWT REQUIRED            3 OUTER ITERATIONS 
       AND A TOTAL OF          5 INNER ITERATIONS.
    ------------------------------------------------

 NO OUTPUT CONTROL FOR STRESS PERIOD   36   TIME STEP    9
 
 SOLVING FOR HEAD 
                                                   Max.-Head-Change                         Max.-Flux-Residual
  Residual-Control   Outer-Iter.   Inner-Iter.     Column Row Layer    Maximum-Head-Change  Column Row Layer    Maximum-Flux-Residual          L2-NORM 
          0                 1           2             4    7     1       0.5967445046E-02       4    7    1         0.3140941183E+00      0.6825135114E+00
          0                 2           2             4    7     1      -0.5805310007E-03       4    7    1        -0.3142708038E-01      0.6820447189E-01
          0                 3           1             4    7     1       0.3953199998E-04       4    7    1         0.2199895941E-02      0.4769385023E-02

    ------------------------------------------------
       NWT REQUIRED            3 OUTER ITERATIONS 
       AND A TOTAL OF          5 INNER ITERATIONS.
    ------------------------------------------------

 NO OUTPUT CONTROL FOR STRESS PERIOD   36   TIME STEP   10
 
 SOLVING FOR HEAD 
                                                   Max.-Head-Change                         Max.-Flux-Residual
  Residual-Control   Outer-Iter.   Inner-Iter.     Column Row Layer    Maximum-Head-Change  Column Row Layer    Maximum-Flux-Residual          L2-NORM 
          0                 1           2             4    7     1       0.5888495816E-02       4    7    1         0.3100538566E+00      0.6741554327E+00
          0                 2           2             4    7     1      -0.5727910234E-03       4    7    1        -0.3100545046E-01      0.6736835091E-01
          0                 3           1             4    7     1       0.3900493665E-04       4    7    1         0.2170381856E-02      0.4711483665E-02

    ------------------------------------------------
       NWT REQUIRED            3 OUTER ITERATIONS 
       AND A TOTAL OF          5 INNER ITERATIONS.
    ------------------------------------------------

 NO OUTPUT CONTROL FOR STRESS PERIOD   36   TIME STEP   11
 
 SOLVING FOR HEAD 
                                                   Max.-Head-Change                         Max.-Flux-Residual
  Residual-Control   Outer-Iter.   Inner-Iter.     Column Row Layer    Maximum-Head-Change  Column Row Layer    Maximum-Flux-Residual          L2-NORM 
          0                 1           2             4    7     1       0.5811267033E-02       4    7    1         0.3059636465E+00      0.6660624564E+00
          0                 2           2             4    7     1      -0.5652787395E-03       4    7    1        -0.3059642747E-01      0.6656514086E-01
          0                 3           1             4    7     1       0.3849337803E-04       4    7    1         0.2141750248E-02      0.4655741369E-02

    ------------------------------------------------
       NWT REQUIRED            3 OUTER ITERATIONS 
       AND A TOTAL OF          5 INNER ITERATIONS.
    ------------------------------------------------

 NO OUTPUT CONTROL FOR STRESS PERIOD   36   TIME STEP   12
 
 SOLVING FOR HEAD 
                                                   Max.-Head-Change                         Max.-Flux-Residual
  Residual-Control   Outer-Iter.   Inner-Iter.     Column Row Layer    Maximum-Head-Change  Column Row Layer    Maximum-Flux-Residual          L2-NORM 
          0                 1           2             4    7     1       0.5735655102E-02       4    7    1         0.3019594226E+00      0.6582726201E+00
          0                 2           2             4    7     1      -0.5579237319E-03       4    7    1        -0.3019600315E-01      0.6579144096E-01
          0                 3           1             4    7     1       0.3799252934E-04       4    7    1         0.2113720546E-02      0.4602107585E-02

    ------------------------------------------------
       NWT REQUIRED            3 OUTER ITERATIONS 
       AND A TOTAL OF          5 INNER ITERATIONS.
    ------------------------------------------------

 NO OUTPUT CONTROL FOR STRESS PERIOD   36   TIME STEP   13
 
 SOLVING FOR HEAD 
                                                   Max.-Head-Change                         Max.-Flux-Residual
  Residual-Control   Outer-Iter.   Inner-Iter.     Column Row Layer    Maximum-Head-Change  Column Row Layer    Maximum-Flux-Residual          L2-NORM 
          0                 1           2             4    7     1       0.5661080987E-02       4    7    1         0.2980094534E+00      0.6507590875E+00
          0                 2           2             4    7     1      -0.5506696770E-03       4    7    1        -0.2980100437E-01      0.6504466179E-01
          0                 3           1             4    7     1       0.3749855577E-04       4    7    1         0.2086070652E-02      0.4550260778E-02

    ------------------------------------------------
       NWT REQUIRED            3 OUTER ITERATIONS 
       AND A TOTAL OF          5 INNER ITERATIONS.
    ------------------------------------------------

 NO OUTPUT CONTROL FOR STRESS PERIOD   36   TIME STEP   14
 
 SOLVING FOR HEAD 
                                                   Max.-Head-Change                         Max.-Flux-Residual
  Residual-Control   Outer-Iter.   Inner-Iter.     Column Row Layer    Maximum-Head-Change  Column Row Layer    Maximum-Flux-Residual          L2-NORM 
          0                 1           2             4    7     1       0.5588340923E-02       4    7    1         0.2941576595E+00      0.6434938509E+00
          0                 2           2             4    7     1      -0.5435940258E-03       4    7    1        -0.2941582320E-01      0.6432210156E-01
          0                 3           1             4    7     1       0.3701672994E-04       4    7    1         0.2059107958E-02      0.4499806873E-02

    ------------------------------------------------
       NWT REQUIRED            3 OUTER ITERATIONS 
       AND A TOTAL OF          5 INNER ITERATIONS.
    ------------------------------------------------

 NO OUTPUT CONTROL FOR STRESS PERIOD   36   TIME STEP   15
 
 SOLVING FOR HEAD 
                                                   Max.-Head-Change                         Max.-Flux-Residual
  Residual-Control   Outer-Iter.   Inner-Iter.     Column Row Layer    Maximum-Head-Change  Column Row Layer    Maximum-Flux-Residual          L2-NORM 
          0                 1           2             4    7     1       0.5516568439E-02       4    7    1         0.2903565924E+00      0.6364472297E+00
          0                 2           2             4    7     1      -0.5366124947E-03       4    7    1        -0.2903571472E-01      0.6362067704E-01
          0                 3           1             4    7     1       0.3654131416E-04       4    7    1         0.2032500388E-02      0.4451068497E-02

    ------------------------------------------------
       NWT REQUIRED            3 OUTER ITERATIONS 
       AND A TOTAL OF          5 INNER ITERATIONS.
    ------------------------------------------------

 NO OUTPUT CONTROL FOR STRESS PERIOD   36   TIME STEP   16
 
 SOLVING FOR HEAD 
                                                   Max.-Head-Change                         Max.-Flux-Residual
  Residual-Control   Outer-Iter.   Inner-Iter.     Column Row Layer    Maximum-Head-Change  Column Row Layer    Maximum-Flux-Residual          L2-NORM 
          0                 1           2             4    7     1       0.5446289331E-02       4    7    1         0.2866352709E+00      0.6296058837E+00
          0                 2           2             4    7     1      -0.5297762295E-03       4    7    1        -0.2866358091E-01      0.6293954829E-01
          0                 3           1             4    7     1       0.3607579014E-04       4    7    1         0.2006451021E-02      0.4403828119E-02

    ------------------------------------------------
       NWT REQUIRED            3 OUTER ITERATIONS 
       AND A TOTAL OF          5 INNER ITERATIONS.
    ------------------------------------------------

 NO OUTPUT CONTROL FOR STRESS PERIOD   36   TIME STEP   17
 
 SOLVING FOR HEAD 
                                                   Max.-Head-Change                         Max.-Flux-Residual
  Residual-Control   Outer-Iter.   Inner-Iter.     Column Row Layer    Maximum-Head-Change  Column Row Layer    Maximum-Flux-Residual          L2-NORM 
          0                 1           2             4    7     1       0.5377472310E-02       4    7    1         0.2829913790E+00      0.6229726457E+00
          0                 2           2             4    7     1      -0.5230821862E-03       4    7    1        -0.2829919011E-01      0.6227879801E-01
          0                 3           1             4    7     1       0.3561995079E-04       4    7    1         0.1980943674E-02      0.4357818847E-02

    ------------------------------------------------
       NWT REQUIRED            3 OUTER ITERATIONS 
       AND A TOTAL OF          5 INNER ITERATIONS.
    ------------------------------------------------

 NO OUTPUT CONTROL FOR STRESS PERIOD   36   TIME STEP   18
 
 SOLVING FOR HEAD 
                                                   Max.-Head-Change                         Max.-Flux-Residual
  Residual-Control   Outer-Iter.   Inner-Iter.     Column Row Layer    Maximum-Head-Change  Column Row Layer    Maximum-Flux-Residual          L2-NORM 
          0                 1           2             4    7     1       0.5309808241E-02       4    7    1         0.2794085053E+00      0.6165143737E+00
          0                 2           2             4    7     1      -0.5165002942E-03       4    7    1        -0.2794090116E-01      0.6163524390E-01
          0                 3           1             4    7     1       0.3517174865E-04       4    7    1         0.1955863446E-02      0.4312668048E-02

    ------------------------------------------------
       NWT REQUIRED            3 OUTER ITERATIONS 
       AND A TOTAL OF          5 INNER ITERATIONS.
    ------------------------------------------------

 NO OUTPUT CONTROL FOR STRESS PERIOD   36   TIME STEP   19
 
 SOLVING FOR HEAD 
                                                   Max.-Head-Change                         Max.-Flux-Residual
  Residual-Control   Outer-Iter.   Inner-Iter.     Column Row Layer    Maximum-Head-Change  Column Row Layer    Maximum-Flux-Residual          L2-NORM 
          0                 1           2             4    7     1       0.5243269258E-02       4    7    1         0.2758854106E+00      0.6102260841E+00
          0                 2           2             4    7     1      -0.5100278434E-03       4    7    1        -0.2758859017E-01      0.6100837593E-01
          0                 3           1             4    7     1       0.3473099912E-04       4    7    1         0.1931201686E-02      0.4269105504E-02

    ------------------------------------------------
       NWT REQUIRED            3 OUTER ITERATIONS 
       AND A TOTAL OF          5 INNER ITERATIONS.
    ------------------------------------------------

 NO OUTPUT CONTROL FOR STRESS PERIOD   36   TIME STEP   20
 
 SOLVING FOR HEAD 
                                                   Max.-Head-Change                         Max.-Flux-Residual
  Residual-Control   Outer-Iter.   Inner-Iter.     Column Row Layer    Maximum-Head-Change  Column Row Layer    Maximum-Flux-Residual          L2-NORM 
          0                 1           2             4    7     1       0.5178376952E-02       4    7    1         0.2724502293E+00      0.6041025392E+00
          0                 2           2             4    7     1      -0.5037155705E-03       4    7    1        -0.2724507062E-01      0.6039780813E-01
          0                 3           1             4    7     1       0.3430115691E-04       4    7    1         0.1907155327E-02      0.4226738012E-02

    ------------------------------------------------
       NWT REQUIRED            3 OUTER ITERATIONS 
       AND A TOTAL OF          5 INNER ITERATIONS.
    ------------------------------------------------

 NO OUTPUT CONTROL FOR STRESS PERIOD   36   TIME STEP   21
 
 SOLVING FOR HEAD 
                                                   Max.-Head-Change                         Max.-Flux-Residual
  Residual-Control   Outer-Iter.   Inner-Iter.     Column Row Layer    Maximum-Head-Change  Column Row Layer    Maximum-Flux-Residual          L2-NORM 
          0                 1           2             4    7     1       0.5114267514E-02       4    7    1         0.2690560569E+00      0.5981162066E+00
          0                 2           2             4    7     1      -0.4974794493E-03       4    7    1        -0.2690565195E-01      0.5980060205E-01
          0                 3           1             4    7     1       0.3387649998E-04       4    7    1         0.1883396000E-02      0.4185003988E-02

    ------------------------------------------------
       NWT REQUIRED            3 OUTER ITERATIONS 
       AND A TOTAL OF          5 INNER ITERATIONS.
    ------------------------------------------------

 NO OUTPUT CONTROL FOR STRESS PERIOD   36   TIME STEP   22
 
 SOLVING FOR HEAD 
                                                   Max.-Head-Change                         Max.-Flux-Residual
  Residual-Control   Outer-Iter.   Inner-Iter.     Column Row Layer    Maximum-Head-Change  Column Row Layer    Maximum-Flux-Residual          L2-NORM 
          0                 1           2             4    7     1       0.5051477111E-02       4    7    1         0.2657320549E+00      0.5922774538E+00
          0                 2           2             4    7     1      -0.4913716353E-03       4    7    1        -0.2657325039E-01      0.5921796938E-01
          0                 3           1             4    7     1       0.3346058078E-04       4    7    1         0.1860127893E-02      0.4144347638E-02

    ------------------------------------------------
       NWT REQUIRED            3 OUTER ITERATIONS 
       AND A TOTAL OF          5 INNER ITERATIONS.
    ------------------------------------------------

 NO OUTPUT CONTROL FOR STRESS PERIOD   36   TIME STEP   23
 
 SOLVING FOR HEAD 
                                                   Max.-Head-Change                         Max.-Flux-Residual
  Residual-Control   Outer-Iter.   Inner-Iter.     Column Row Layer    Maximum-Head-Change  Column Row Layer    Maximum-Flux-Residual          L2-NORM 
          0                 1           2             4    7     1       0.4989971749E-02       4    7    1         0.2624764433E+00      0.5865734020E+00
          0                 2           2             4    7     1      -0.4853888216E-03       4    7    1        -0.2624768791E-01      0.5864879556E-01
          0                 3           1             4    7     1       0.3305317378E-04       4    7    1         0.1837338532E-02      0.4104767502E-02

    ------------------------------------------------
       NWT REQUIRED            3 OUTER ITERATIONS 
       AND A TOTAL OF          5 INNER ITERATIONS.
    ------------------------------------------------

 NO OUTPUT CONTROL FOR STRESS PERIOD   36   TIME STEP   24
 
 SOLVING FOR HEAD 
                                                   Max.-Head-Change                         Max.-Flux-Residual
  Residual-Control   Outer-Iter.   Inner-Iter.     Column Row Layer    Maximum-Head-Change  Column Row Layer    Maximum-Flux-Residual          L2-NORM 
          0                 1           2             4    7     1       0.4929444671E-02       4    7    1         0.2592726692E+00      0.5809945919E+00
          0                 2           2             4    7     1      -0.4795011686E-03       4    7    1        -0.2592730924E-01      0.5809179491E-01
          0                 3           1             4    7     1       0.3265224642E-04       4    7    1         0.1814912013E-02      0.4065676424E-02

    ------------------------------------------------
       NWT REQUIRED            3 OUTER ITERATIONS 
       AND A TOTAL OF          5 INNER ITERATIONS.
    ------------------------------------------------

 NO OUTPUT CONTROL FOR STRESS PERIOD   36   TIME STEP   25
 
 SOLVING FOR HEAD 
                                                   Max.-Head-Change                         Max.-Flux-Residual
  Residual-Control   Outer-Iter.   Inner-Iter.     Column Row Layer    Maximum-Head-Change  Column Row Layer    Maximum-Flux-Residual          L2-NORM 
          0                 1           2             4    7     1       0.4870156259E-02       4    7    1         0.2561344082E+00      0.5755492268E+00
          0                 2           2             4    7     1      -0.4737340048E-03       4    7    1        -0.2561348190E-01      0.5754810973E-01
          0                 3           1             4    7     1       0.3225952428E-04       4    7    1         0.1792944122E-02      0.4027705857E-02

    ------------------------------------------------
       NWT REQUIRED            3 OUTER ITERATIONS 
       AND A TOTAL OF          5 INNER ITERATIONS.
    ------------------------------------------------

 NO OUTPUT CONTROL FOR STRESS PERIOD   36   TIME STEP   26
 
 SOLVING FOR HEAD 
                                                   Max.-Head-Change                         Max.-Flux-Residual
  Residual-Control   Outer-Iter.   Inner-Iter.     Column Row Layer    Maximum-Head-Change  Column Row Layer    Maximum-Flux-Residual          L2-NORM 
          0                 1           2             4    7     1       0.4811795496E-02       4    7    1         0.2530455800E+00      0.5702088247E+00
          0                 2           2             4    7     1      -0.4680570768E-03       4    7    1        -0.2530459791E-01      0.5701489983E-01
          0                 3           1             4    7     1       0.3187294665E-04       4    7    1         0.1771322236E-02      0.3990487780E-02

    ------------------------------------------------
       NWT REQUIRED            3 OUTER ITERATIONS 
       AND A TOTAL OF          5 INNER ITERATIONS.
    ------------------------------------------------

 NO OUTPUT CONTROL FOR STRESS PERIOD   36   TIME STEP   27
 
 SOLVING FOR HEAD 
                                                   Max.-Head-Change                         Max.-Flux-Residual
  Residual-Control   Outer-Iter.   Inner-Iter.     Column Row Layer    Maximum-Head-Change  Column Row Layer    Maximum-Flux-Residual          L2-NORM 
          0                 1           2             4    7     1       0.4754611287E-02       4    7    1         0.2500196398E+00      0.5649704149E+00
          0                 2           2             4    7     1      -0.4624945954E-03       4    7    1        -0.2500200275E-01      0.5649172370E-01
          0                 3           1             4    7     1       0.3149416221E-04       4    7    1         0.1750140567E-02      0.3953926230E-02

    ------------------------------------------------
       NWT REQUIRED            3 OUTER ITERATIONS 
       AND A TOTAL OF          5 INNER ITERATIONS.
    ------------------------------------------------

 NO OUTPUT CONTROL FOR STRESS PERIOD   36   TIME STEP   28
 
 SOLVING FOR HEAD 
                                                   Max.-Head-Change                         Max.-Flux-Residual
  Residual-Control   Outer-Iter.   Inner-Iter.     Column Row Layer    Maximum-Head-Change  Column Row Layer    Maximum-Flux-Residual          L2-NORM 
          0                 1           2             4    7     1       0.4698312714E-02       4    7    1         0.2470399115E+00      0.5598448481E+00
          0                 2           2             4    7     1      -0.4570182635E-03       4    7    1        -0.2470402880E-01      0.5597964933E-01
          0                 3           1             4    7     1       0.3112124465E-04       4    7    1         0.1729282401E-02      0.3918100583E-02

    ------------------------------------------------
       NWT REQUIRED            3 OUTER ITERATIONS 
       AND A TOTAL OF          5 INNER ITERATIONS.
    ------------------------------------------------

 NO OUTPUT CONTROL FOR STRESS PERIOD   36   TIME STEP   29
 
 SOLVING FOR HEAD 
                                                   Max.-Head-Change                         Max.-Flux-Residual
  Residual-Control   Outer-Iter.   Inner-Iter.     Column Row Layer    Maximum-Head-Change  Column Row Layer    Maximum-Flux-Residual          L2-NORM 
          0                 1           2             4    7     1       0.4643148512E-02       4    7    1         0.2441208935E+00      0.5548250652E+00
          0                 2           2             4    7     1      -0.4516522757E-03       4    7    1        -0.2441212595E-01      0.5547826686E-01
          0                 3           1             4    7     1       0.3075584124E-04       4    7    1         0.1708849216E-02      0.3883049102E-02

    ------------------------------------------------
       NWT REQUIRED            3 OUTER ITERATIONS 
       AND A TOTAL OF          5 INNER ITERATIONS.
    ------------------------------------------------

 NO OUTPUT CONTROL FOR STRESS PERIOD   36   TIME STEP   30



 STREAM LISTING     PERIOD     36   STEP       30

 LAYER ROW COL. STREAM  RCH.  FLOW INTO     FLOW TO   FLOW OUT OF   OVRLND.     DIRECT     STREAM       STREAM     STREAM     STREAM   STREAMBED  STREAMBED
                SEG.NO.  NO.  STRM. RCH.    AQUIFER    STRM. RCH.    RUNOFF     PRECIP       ET          HEAD       DEPTH      WIDTH   CONDCTNC.   GRADIENT

   1    1    1     1     1    1.9499E+01  2.1750E-01   1.9282E+01  0.000E+00  0.000E+00  0.000E+00  1.09414E+03  1.090E+00  1.182E+01  5.318E-02  1.363E+00
   1    2    2     1     2    1.9282E+01  3.3555E-01   1.8946E+01  0.000E+00  0.000E+00  0.000E+00  1.08914E+03  1.086E+00  1.173E+01  8.213E-02  1.362E+00
   1    3    3     1     3    1.8946E+01  2.8492E-01   1.8661E+01  0.000E+00  0.000E+00  0.000E+00  1.08350E+03  1.081E+00  1.164E+01  6.982E-02  1.360E+00
   1    3    4     1     4    1.8661E+01  2.6135E-01   1.8400E+01  0.000E+00  0.000E+00  0.000E+00  1.07848E+03  1.076E+00  1.155E+01  6.412E-02  1.359E+00
   1    4    5     2     1    1.6400E+01  3.0673E-01   1.6093E+01  0.000E+00  0.000E+00  0.000E+00  1.07287E+03  9.324E-01  1.200E+01  7.800E-02  1.311E+00
   1    5    6     2     2    1.6093E+01  2.3538E-01   1.5858E+01  0.000E+00  0.000E+00  0.000E+00  1.06743E+03  9.230E-01  1.200E+01  6.000E-02  1.308E+00
   1    6    6     2     3    1.5858E+01  2.3489E-01   1.5623E+01  0.000E+00  0.000E+00  0.000E+00  1.06271E+03  9.149E-01  1.200E+01  6.000E-02  1.305E+00
   1    7    6     2     4    1.5623E+01  2.3440E-01   1.5389E+01  0.000E+00  0.000E+00  0.000E+00  1.05798E+03  9.067E-01  1.200E+01  6.000E-02  1.302E+00
   1    8    6     2     5    1.5389E+01  2.3390E-01   1.5155E+01  0.000E+00  0.000E+00  0.000E+00  1.05326E+03  8.984E-01  1.200E+01  6.000E-02  1.299E+00
   1    3    5     3     1    2.0000E+00  2.8252E-01   1.7175E+00  0.000E+00  0.000E+00  0.000E+00  1.07555E+03  1.909E+00  9.636E+00  7.227E-02  1.955E+00
   1    3    6     3     2    1.7175E+00  2.4905E-01   1.4684E+00  0.000E+00  0.000E+00  0.000E+00  1.07264E+03  1.727E+00  8.909E+00  6.682E-02  1.864E+00
   1    3    7     3     3    1.4684E+00  1.9718E-01   1.2712E+00  0.000E+00  0.000E+00  0.000E+00  1.06987E+03  1.555E+00  8.218E+00  5.547E-02  1.777E+00
   1    4    8     3     4    1.2712E+00  2.2567E-01   1.0456E+00  0.000E+00  0.000E+00  0.000E+00  1.06682E+03  1.364E+00  7.455E+00  6.709E-02  1.682E+00
   1    5    8     3     5    1.0456E+00  1.5790E-01   8.8768E-01  0.000E+00  0.000E+00  0.000E+00  1.06362E+03  1.164E+00  6.655E+00  4.991E-02  1.582E+00
   1    6    8     3     6    8.8768E-01  5.5980E-02   8.3170E-01  0.000E+00  0.000E+00  0.000E+00  1.06158E+03  1.036E+00  6.145E+00  1.844E-02  1.518E+00
   1    5   10     4     1    1.0000E+01  9.0919E-02   9.9091E+00  0.000E+00  0.000E+00  0.000E+00  1.07836E+03  6.368E-01  1.000E+01  2.500E-02  1.212E+00
   1    5    9     4     2    9.9091E+00  1.8158E-01   9.7275E+00  0.000E+00  0.000E+00  0.000E+00  1.07154E+03  6.315E-01  1.000E+01  5.000E-02  1.211E+00
   1    6    8     4     3    9.7275E+00  1.2689E-01   9.6006E+00  0.000E+00  0.000E+00  0.000E+00  1.06381E+03  6.256E-01  1.000E+01  3.500E-02  1.209E+00
   1    6    8     5     1    1.0432E+01  2.2686E-01   1.0205E+01  0.000E+00  0.000E+00  0.000E+00  1.05868E+03  6.790E-01  1.542E+01  6.166E-02  1.226E+00
   1    7    7     5     2    1.0205E+01  2.7894E-01   9.9265E+00  0.000E+00  0.000E+00  0.000E+00  1.05417E+03  6.732E-01  1.519E+01  7.594E-02  1.224E+00
   1    8    7     5     3    9.9265E+00  1.9221E-01   9.7343E+00  0.000E+00  0.000E+00  0.000E+00  1.04992E+03  6.676E-01  1.497E+01  5.241E-02  1.223E+00
   1    8    6     5     4    9.7343E+00  1.3577E-01   9.5985E+00  0.000E+00  0.000E+00  0.000E+00  1.04691E+03  6.637E-01  1.482E+01  3.706E-02  1.221E+00
   1    9    6     6     1    2.4753E+01  2.5261E-01   2.4501E+01  0.000E+00  0.000E+00  0.000E+00  1.04394E+03  1.210E+00  1.200E+01  6.000E-02  1.403E+00
   1   10    7     6     2    2.4501E+01  2.5216E-01   2.4249E+01  0.000E+00  0.000E+00  0.000E+00  1.03938E+03  1.203E+00  1.200E+01  6.000E-02  1.401E+00
   1   11    7     6     3    2.4249E+01  2.5171E-01   2.3997E+01  0.000E+00  0.000E+00  0.000E+00  1.03483E+03  1.195E+00  1.200E+01  6.000E-02  1.398E+00
   1   12    7     6     4    2.3997E+01  2.5126E-01   2.3746E+01  0.000E+00  0.000E+00  0.000E+00  1.03028E+03  1.188E+00  1.200E+01  6.000E-02  1.396E+00
   1   13    7     6     5    2.3746E+01  7.9365E-04   2.3745E+01  0.000E+00  0.000E+00  0.000E+00  1.02709E+03  1.184E+00  1.200E+01  2.400E-02  1.102E-02
   1   14    9     7     1    1.5000E+02  1.3410E+00   1.4866E+02  0.000E+00  0.000E+00  0.000E+00  1.03987E+03  2.288E+00  5.529E+01  5.593E-01  7.992E-01
   1   13    8     7     2    1.4866E+02  1.8432E+00   1.4682E+02  0.000E+00  0.000E+00  0.000E+00  1.03478E+03  2.279E+00  5.526E+01  6.148E-01  9.994E-01
   1   13    7     7     3    1.4682E+02  1.4686E+00   1.4535E+02  0.000E+00  0.000E+00  0.000E+00  1.02969E+03  2.270E+00  5.522E+01  5.584E-01  8.766E-01
   1   13    6     8     1    1.6909E+02  9.0954E-01   1.6818E+02  0.000E+00  0.000E+00  0.000E+00  1.02482E+03  2.943E+00  4.268E+01  4.349E-01  6.971E-01
   1   13    5     8     2    1.6818E+02  1.5919E-01   1.6802E+02  0.000E+00  0.000E+00  0.000E+00  1.01856E+03  2.940E+00  4.263E+01  4.344E-01  1.222E-01
   1   13    4     8     3    1.6802E+02 -2.5076E+00   1.7053E+02  0.000E+00  0.000E+00  0.000E+00  1.01232E+03  2.947E+00  4.274E+01  4.355E+00 -1.919E-01
   1   13    3     8     4    1.7053E+02 -3.6794E+00   1.7421E+02  0.000E+00  0.000E+00  0.000E+00  1.00609E+03  2.968E+00  4.303E+01  4.385E+00 -2.797E-01
   1   13    2     8     5    1.7421E+02 -2.5882E+00   1.7680E+02  0.000E+00  0.000E+00  0.000E+00  9.99863E+02  2.988E+00  4.332E+01  4.415E+00 -1.954E-01
   1   13    1     8     6    1.7680E+02 -1.9926E+00   1.7879E+02  0.000E+00  0.000E+00  0.000E+00  9.94877E+02  3.002E+00  4.353E+01  2.662E+00 -2.495E-01
   1    8    6     9     1    0.0000E+00  0.0000E+00   0.0000E+00  0.000E+00  0.000E+00  0.000E+00  1.07875E+03  0.000E+00  4.000E+00  0.000E+00  1.000E+00
   1    8    5     9     2    0.0000E+00  0.0000E+00   0.0000E+00  0.000E+00  0.000E+00  0.000E+00  1.07825E+03  0.000E+00  4.000E+00  0.000E+00  1.000E+00





UNSATURATED ZONE PACKAGE VOLUMETRIC BUDGET FOR  TIME STEP    30 STRESS PERIOD   36
  ------------------------------------------------------------------------------



     CUMULATIVE VOLUMES      L**3       RATES FOR THIS TIME STEP      L**3/T
     ------------------                 ------------------------

           IN:                                      IN:
           ---                                      ---
        INFILTRATION =  1600030305.6335          INFILTRATION =           4.4075

          OUT:                                     OUT:
          ----                                     ----
              UZF ET =  1491409691.6847                UZF ET =           0.7250
        UZF RECHARGE =     1188452.4670          UZF RECHARGE =       0.0000E+00

            IN - OUT =   107432161.4818              IN - OUT =           3.6825

          STORAGE:                                 STORAGE:
          --------                                 --------
      STORAGE CHANGE =   107433120.4241        STORAGE CHANGE =           3.6825

 PERCENT DISCREPANCY IS DIFFERENCE BETWEEN IN-OUT MINUS CHANGE IN STORAGE
 DIVIDED BY THE AVERAGE OF IN AND OUT TIMES 100

 PERCENT DISCREPANCY =          -0.00     PERCENT DISCREPANCY =           0.00






1
  VOLUMETRIC BUDGET FOR ENTIRE MODEL AT END OF TIME STEP   30, STRESS PERIOD  36
  ------------------------------------------------------------------------------

     CUMULATIVE VOLUMES      L**3       RATES FOR THIS TIME STEP      L**3/T
     ------------------                 ------------------------

           IN:                                      IN:
           ---                                      ---
               AG WELLS  =   219671824.0000                 AG WELLS  =           0.0000
      DIVERSION SEGMENTS =   974557696.0000        DIVERSION SEGMENTS =           0.0000
           GW IRRIGATION =           0.0000             GW IRRIGATION =           0.0000
           SW IRRIGATION =           0.0000             SW IRRIGATION =           0.0000
        SYSTEM LOSSES GW =           0.0000          SYSTEM LOSSES GW =           0.0000
        SYSTEM LOSSES SW =           0.0000          SYSTEM LOSSES SW =           0.0000

                TOTAL IN =  1194229504.0000                  TOTAL IN =           0.0000

          OUT:                                     OUT:
          ----                                     ----
               AG WELLS  =           0.0000                 AG WELLS  =           0.0000
      DIVERSION SEGMENTS =           0.0000        DIVERSION SEGMENTS =           0.0000
           GW IRRIGATION =   219671824.0000             GW IRRIGATION =           0.0000
           SW IRRIGATION =   974577408.0000             SW IRRIGATION =           0.0000
        SYSTEM LOSSES GW =           0.0000          SYSTEM LOSSES GW =           0.0000
        SYSTEM LOSSES SW =           0.0000          SYSTEM LOSSES SW =           0.0000

               TOTAL OUT =  1194249216.0000                 TOTAL OUT =           0.0000

                IN - OUT =      -19712.0000                  IN - OUT =           0.0000

     PERCENT DISCREPANCY =          -0.00         PERCENT DISCREPANCY =           0.00



1
  VOLUMETRIC BUDGET FOR ENTIRE MODEL AT END OF TIME STEP   30, STRESS PERIOD  36
  ------------------------------------------------------------------------------

     CUMULATIVE VOLUMES      L**3       RATES FOR THIS TIME STEP      L**3/T
     ------------------                 ------------------------

           IN:                                      IN:
           ---                                      ---
             STORAGE     =   369762912.0000               STORAGE     =           1.2515
       CONSTANT HEAD     =           0.0000         CONSTANT HEAD     =           0.0000
     HEAD DEP BOUNDS     =    26336256.0000       HEAD DEP BOUNDS     =           0.2861
      STREAM LEAKAGE     =  1100186880.0000        STREAM LEAKAGE     =          11.4762
        UZF RECHARGE     =     1188452.5000          UZF RECHARGE     =           0.0000
               GW ET     =           0.0000                 GW ET     =           0.0000
     SURFACE LEAKAGE     =           0.0000       SURFACE LEAKAGE     =           0.0000
           AG WELLS      =           0.0000             AG WELLS      =           0.0000

                TOTAL IN =  1497474560.0000                  TOTAL IN =          13.0138

          OUT:                                     OUT:
          ----                                     ----
             STORAGE     =   250476512.0000               STORAGE     =           1.9564
       CONSTANT HEAD     =           0.0000         CONSTANT HEAD     =           0.0000
     HEAD DEP BOUNDS     =    26783250.0000       HEAD DEP BOUNDS     =           0.2898
      STREAM LEAKAGE     =   997280384.0000        STREAM LEAKAGE     =          10.7678
        UZF RECHARGE     =           0.0000          UZF RECHARGE     =           0.0000
               GW ET     =     3265349.0000                 GW ET     =           0.0000
     SURFACE LEAKAGE     =           0.0000       SURFACE LEAKAGE     =           0.0000
           AG WELLS      =   219671824.0000             AG WELLS      =           0.0000

               TOTAL OUT =  1497477376.0000                 TOTAL OUT =          13.0140

                IN - OUT =       -2816.0000                  IN - OUT =      -1.9836E-04

     PERCENT DISCREPANCY =          -0.00         PERCENT DISCREPANCY =          -0.00






         TIME SUMMARY AT END OF TIME STEP   30 IN STRESS PERIOD   36
                    SECONDS     MINUTES      HOURS       DAYS        YEARS
                    -----------------------------------------------------------
   TIME STEP LENGTH  87667.      1461.1      24.352      1.0147     2.77799E-03
 STRESS PERIOD TIME 2.63000E+06  43833.      730.56      30.440     8.33397E-02
         TOTAL TIME 9.21360E+07 1.53560E+06  25593.      1066.4      2.9196    
1
1
                            STRESS PERIOD NO.   37, LENGTH =   2630000.    
                            -----------------------------------------------

                              NUMBER OF TIME STEPS =    30

                               MULTIPLIER FOR DELT =     1.000

                            INITIAL TIME STEP SIZE =   87666.66    

 REUSING NON-PARAMETER GHB CELLS FROM LAST STRESS PERIOD

      2 GHB CELLS

 REUSING STREAM SEGMENT DATA FROM LAST STRESS PERIOD



            AREAL INFILTRATION RATE
 READING ON UNIT   19 WITH FORMAT: (10F4.0)            

            1           2           3           4           5           6           7           8           9          10
 ........................................................................................................................
   1   1.2000E-09   0.000       0.000       0.000       0.000       0.000       0.000       0.000       0.000       0.000    
   2   2.1000E-09  2.0000E-09  8.0000E-10  8.5000E-09   0.000       0.000       0.000       0.000       0.000       0.000    
   3   5.0000E-10  1.1000E-09  8.8000E-09  5.5000E-09   0.000       0.000       0.000       0.000       0.000       0.000    
   4   8.5000E-09  1.1000E-09  1.1000E-09  1.1000E-09  2.0000E-09   0.000       0.000       0.000       0.000       0.000    
   5   8.5000E-09  1.1000E-09  1.1000E-09  1.1000E-09  1.1000E-09   0.000       0.000       0.000       0.000       0.000    
   6   8.5000E-09  5.2000E-09  2.1000E-09  1.1000E-09  1.5000E-09   0.000       0.000       0.000       0.000       0.000    
   7   8.5000E-09  5.2000E-09  2.1000E-09  1.2000E-09  2.0000E-09   0.000       0.000       0.000       0.000       0.000    
   8   5.0000E-10  5.2000E-09  2.1000E-09  1.2000E-09  5.0000E-09   0.000       0.000       0.000       0.000       0.000    
   9   5.0000E-10  5.2000E-09  2.1000E-09  1.2000E-09  5.0000E-09   0.000       0.000       0.000       0.000       0.000    
  10   5.0000E-10  5.2000E-09  2.1000E-09  1.2000E-09  5.8000E-09   0.000       0.000       0.000       0.000       0.000    
  11   1.0000E-10  1.1000E-09  1.1000E-09  1.2000E-09  5.0000E-09   0.000       0.000       0.000       0.000       0.000    
  12   1.1000E-09  1.1000E-09  1.1000E-09  1.1000E-09  2.0000E-09   0.000       0.000       0.000       0.000       0.000    
  13   1.1000E-09  2.2000E-09  2.2000E-09  2.1000E-09  1.0000E-09   0.000       0.000       0.000       0.000       0.000    
  14   2.0000E-10  5.5000E-09  5.5000E-09  5.2000E-09  1.0000E-09   0.000       0.000       0.000       0.000       0.000    
  15    0.000      8.8000E-09  8.8000E-09   0.000       0.000       0.000       0.000       0.000       0.000       0.000    

                  ET RATE =  5.000000E-10

 USING ET EXTINCTION DEPTH FROM PREVIOUS STRESS PERIOD. CURRENT PERIOD IS:      37

 USING EXTINCTION WATER CONTENT FROM PREVIOUS STRESS PERIOD. CURRENT PERIOD IS:      37

 USING AIR ENTRY PRESSURE FROM PREVIOUS STRESS PERIOD. CURRENT PERIOD IS:      37

 USING ROOT PRESSURE HEAD FROM PREVIOUS STRESS PERIOD. CURRENT PERIOD IS:      37

 USING ROOT ACTIVITY FROM PREVIOUS STRESS PERIOD. CURRENT PERIOD IS:      37

 PROCESSING AG STRESS PERIOD DATA

 READING AG STRESS PERIOD DATA

 READING IRRIGATION SEGMENT

 READING IRRIGATION WELL

 READING SUPPLEMENTAL WELL

 END PROCESSING AG STRESS PERIOD DATA OPTIONS
 
 SOLVING FOR HEAD 
                                                   Max.-Head-Change                         Max.-Flux-Residual
  Residual-Control   Outer-Iter.   Inner-Iter.     Column Row Layer    Maximum-Head-Change  Column Row Layer    Maximum-Flux-Residual          L2-NORM 
          0                 1           2             4    7     1       0.4589087515E-02       4    7    1         0.2412606911E+00      0.5529653504E+00
          0                 2           2             4    7     1      -0.4463935994E-03       4    7    1        -0.2412610467E-01      0.5528408939E-01
          0                 3           1             4    7     1       0.3039774487E-04       4    7    1         0.1688827724E-02      0.3868773433E-02

    ------------------------------------------------
       NWT REQUIRED            3 OUTER ITERATIONS 
       AND A TOTAL OF          5 INNER ITERATIONS.
    ------------------------------------------------

 NO OUTPUT CONTROL FOR STRESS PERIOD   37   TIME STEP    1
 
 SOLVING FOR HEAD 
                                                   Max.-Head-Change                         Max.-Flux-Residual
  Residual-Control   Outer-Iter.   Inner-Iter.     Column Row Layer    Maximum-Head-Change  Column Row Layer    Maximum-Flux-Residual          L2-NORM 
          0                 1           2             4    7     1       0.4535805621E-02       4    7    1         0.2384428972E+00      0.5613257770E+00
          0                 2           2             4    7     1      -0.4412107096E-03       4    7    1        -0.2384432430E-01      0.5649047914E-01
          0                 3           1             4    7     1       0.3004480917E-04       4    7    1         0.1669103103E-02      0.3976162242E-02

    ------------------------------------------------
       NWT REQUIRED            3 OUTER ITERATIONS 
       AND A TOTAL OF          5 INNER ITERATIONS.
    ------------------------------------------------

 NO OUTPUT CONTROL FOR STRESS PERIOD   37   TIME STEP    2
 
 SOLVING FOR HEAD 
                                                   Max.-Head-Change                         Max.-Flux-Residual
  Residual-Control   Outer-Iter.   Inner-Iter.     Column Row Layer    Maximum-Head-Change  Column Row Layer    Maximum-Flux-Residual          L2-NORM 
          0                 1           2             4    7     1       0.4483564864E-02       4    7    1         0.2356802899E+00      0.5552747799E+00
          0                 2           2             4    7     1      -0.4361290940E-03       4    7    1        -0.2356806259E-01      0.5547903306E-01
          0                 3           1             4    7     1       0.2969877036E-04       4    7    1         0.1649764773E-02      0.3879140773E-02

    ------------------------------------------------
       NWT REQUIRED            3 OUTER ITERATIONS 
       AND A TOTAL OF          5 INNER ITERATIONS.
    ------------------------------------------------

 NO OUTPUT CONTROL FOR STRESS PERIOD   37   TIME STEP    3
 
 SOLVING FOR HEAD 
                                                   Max.-Head-Change                         Max.-Flux-Residual
  Residual-Control   Outer-Iter.   Inner-Iter.     Column Row Layer    Maximum-Head-Change  Column Row Layer    Maximum-Flux-Residual          L2-NORM 
          0                 1           2             4    7     1       0.4432071997E-02       4    7    1         0.2329568726E+00      0.5494365597E+00
          0                 2           2             4    7     1      -0.4311202285E-03       4    7    1        -0.2329571993E-01      0.5490117524E-01
          0                 3           1             4    7     1       0.2935768513E-04       4    7    1         0.1630700791E-02      0.3839248949E-02

    ------------------------------------------------
       NWT REQUIRED            3 OUTER ITERATIONS 
       AND A TOTAL OF          5 INNER ITERATIONS.
    ------------------------------------------------

 NO OUTPUT CONTROL FOR STRESS PERIOD   37   TIME STEP    4
 
 SOLVING FOR HEAD 
                                                   Max.-Head-Change                         Max.-Flux-Residual
  Residual-Control   Outer-Iter.   Inner-Iter.     Column Row Layer    Maximum-Head-Change  Column Row Layer    Maximum-Flux-Residual          L2-NORM 
          0                 1           2             4    7     1       0.4381589022E-02       4    7    1         0.2302870243E+00      0.5438424018E+00
          0                 2           2             4    7     1      -0.4262095985E-03       4    7    1        -0.2302873422E-01      0.5434707096E-01
          0                 3           1             4    7     1       0.2902328946E-04       4    7    1         0.1612011775E-02      0.3801403953E-02

    ------------------------------------------------
       NWT REQUIRED            3 OUTER ITERATIONS 
       AND A TOTAL OF          5 INNER ITERATIONS.
    ------------------------------------------------

 NO OUTPUT CONTROL FOR STRESS PERIOD   37   TIME STEP    5
 
 SOLVING FOR HEAD 
                                                   Max.-Head-Change                         Max.-Flux-Residual
  Residual-Control   Outer-Iter.   Inner-Iter.     Column Row Layer    Maximum-Head-Change  Column Row Layer    Maximum-Flux-Residual          L2-NORM 
          0                 1           2             4    7     1       0.4332080409E-02       4    7    1         0.2276695377E+00      0.5384449201E+00
          0                 2           2             4    7     1      -0.4213937479E-03       4    7    1        -0.2276698468E-01      0.5381183788E-01
          0                 3           1             4    7     1       0.2869534835E-04       4    7    1         0.1593689341E-02      0.3764262888E-02

    ------------------------------------------------
       NWT REQUIRED            3 OUTER ITERATIONS 
       AND A TOTAL OF          5 INNER ITERATIONS.
    ------------------------------------------------

 NO OUTPUT CONTROL FOR STRESS PERIOD   37   TIME STEP    6
 
 SOLVING FOR HEAD 
                                                   Max.-Head-Change                         Max.-Flux-Residual
  Residual-Control   Outer-Iter.   Inner-Iter.     Column Row Layer    Maximum-Head-Change  Column Row Layer    Maximum-Flux-Residual          L2-NORM 
          0                 1           2             4    7     1       0.4283256345E-02       4    7    1         0.2250877784E+00      0.5332339254E+00
          0                 2           2             4    7     1      -0.4166444852E-03       4    7    1        -0.2250880789E-01      0.5329466112E-01
          0                 3           1             4    7     1       0.2837194143E-04       4    7    1         0.1575616958E-02      0.3727857082E-02

    ------------------------------------------------
       NWT REQUIRED            3 OUTER ITERATIONS 
       AND A TOTAL OF          5 INNER ITERATIONS.
    ------------------------------------------------

 NO OUTPUT CONTROL FOR STRESS PERIOD   37   TIME STEP    7
 
 SOLVING FOR HEAD 
                                                   Max.-Head-Change                         Max.-Flux-Residual
  Residual-Control   Outer-Iter.   Inner-Iter.     Column Row Layer    Maximum-Head-Change  Column Row Layer    Maximum-Flux-Residual          L2-NORM 
          0                 1           2             4    7     1       0.4235378624E-02       4    7    1         0.2225563044E+00      0.5282045109E+00
          0                 2           2             4    7     1      -0.4119872763E-03       4    7    1        -0.2225565969E-01      0.5279523897E-01
          0                 3           1             4    7     1       0.2805480232E-04       4    7    1         0.1557896557E-02      0.3693409490E-02

    ------------------------------------------------
       NWT REQUIRED            3 OUTER ITERATIONS 
       AND A TOTAL OF          5 INNER ITERATIONS.
    ------------------------------------------------

 NO OUTPUT CONTROL FOR STRESS PERIOD   37   TIME STEP    8
 
 SOLVING FOR HEAD 
                                                   Max.-Head-Change                         Max.-Flux-Residual
  Residual-Control   Outer-Iter.   Inner-Iter.     Column Row Layer    Maximum-Head-Change  Column Row Layer    Maximum-Flux-Residual          L2-NORM 
          0                 1           2             4    7     1       0.4188419687E-02       4    7    1         0.2200738971E+00      0.5233223163E+00
          0                 2           2             4    7     1      -0.4074194408E-03       4    7    1        -0.2200741816E-01      0.5231004889E-01
          0                 3           1             4    7     1       0.2774375021E-04       4    7    1         0.1540519676E-02      0.3659695165E-02

    ------------------------------------------------
       NWT REQUIRED            3 OUTER ITERATIONS 
       AND A TOTAL OF          5 INNER ITERATIONS.
    ------------------------------------------------

 NO OUTPUT CONTROL FOR STRESS PERIOD   37   TIME STEP    9
 
 SOLVING FOR HEAD 
                                                   Max.-Head-Change                         Max.-Flux-Residual
  Residual-Control   Outer-Iter.   Inner-Iter.     Column Row Layer    Maximum-Head-Change  Column Row Layer    Maximum-Flux-Residual          L2-NORM 
          0                 1           2             4    7     1       0.4142084628E-02       4    7    1         0.2176243351E+00      0.5185794379E+00
          0                 2           2             4    7     1      -0.4029122919E-03       4    7    1        -0.2176246121E-01      0.5183838540E-01
          0                 3           1             4    7     1       0.2743683042E-04       4    7    1         0.1523372691E-02      0.3627427499E-02

    ------------------------------------------------
       NWT REQUIRED            3 OUTER ITERATIONS 
       AND A TOTAL OF          5 INNER ITERATIONS.
    ------------------------------------------------

 NO OUTPUT CONTROL FOR STRESS PERIOD   37   TIME STEP   10
 
 SOLVING FOR HEAD 
                                                   Max.-Head-Change                         Max.-Flux-Residual
  Residual-Control   Outer-Iter.   Inner-Iter.     Column Row Layer    Maximum-Head-Change  Column Row Layer    Maximum-Flux-Residual          L2-NORM 
          0                 1           2             4    7     1       0.4096636617E-02       4    7    1         0.2152219130E+00      0.5139629361E+00
          0                 2           2             4    7     1      -0.3984914291E-03       4    7    1        -0.2152221828E-01      0.5137895474E-01
          0                 3           1             4    7     1       0.2713578580E-04       4    7    1         0.1506555682E-02      0.3595006325E-02

    ------------------------------------------------
       NWT REQUIRED            3 OUTER ITERATIONS 
       AND A TOTAL OF          5 INNER ITERATIONS.
    ------------------------------------------------

 NO OUTPUT CONTROL FOR STRESS PERIOD   37   TIME STEP   11
 
 SOLVING FOR HEAD 
                                                   Max.-Head-Change                         Max.-Flux-Residual
  Residual-Control   Outer-Iter.   Inner-Iter.     Column Row Layer    Maximum-Head-Change  Column Row Layer    Maximum-Flux-Residual          L2-NORM 
          0                 1           2             4    7     1       0.4051787341E-02       4    7    1         0.2128506905E+00      0.5094703737E+00
          0                 2           2             4    7     1      -0.3941288068E-03       4    7    1        -0.2128509529E-01      0.5093163016E-01
          0                 3           1             4    7     1       0.2683870760E-04       4    7    1         0.1489957075E-02      0.3563820885E-02

    ------------------------------------------------
       NWT REQUIRED            3 OUTER ITERATIONS 
       AND A TOTAL OF          5 INNER ITERATIONS.
    ------------------------------------------------

 NO OUTPUT CONTROL FOR STRESS PERIOD   37   TIME STEP   12
 
 SOLVING FOR HEAD 
                                                   Max.-Head-Change                         Max.-Flux-Residual
  Residual-Control   Outer-Iter.   Inner-Iter.     Column Row Layer    Maximum-Head-Change  Column Row Layer    Maximum-Flux-Residual          L2-NORM 
          0                 1           2             4    7     1       0.4007790868E-02       4    7    1         0.2105253045E+00      0.5050876799E+00
          0                 2           2             4    7     1      -0.3898491395E-03       4    7    1        -0.2105255600E-01      0.5049519297E-01
          0                 3           1             4    7     1       0.2654727783E-04       4    7    1         0.1473679322E-02      0.3533521416E-02

    ------------------------------------------------
       NWT REQUIRED            3 OUTER ITERATIONS 
       AND A TOTAL OF          5 INNER ITERATIONS.
    ------------------------------------------------

 NO OUTPUT CONTROL FOR STRESS PERIOD   37   TIME STEP   13
 
 SOLVING FOR HEAD 
                                                   Max.-Head-Change                         Max.-Flux-Residual
  Residual-Control   Outer-Iter.   Inner-Iter.     Column Row Layer    Maximum-Head-Change  Column Row Layer    Maximum-Flux-Residual          L2-NORM 
          0                 1           2             4    7     1       0.3964630624E-02       4    7    1         0.2082441353E+00      0.5008171385E+00
          0                 2           2             4    7     1      -0.3856508150E-03       4    7    1        -0.2082443842E-01      0.5006959216E-01
          0                 3           1             4    7     1       0.2626138764E-04       4    7    1         0.1457711086E-02      0.3503672748E-02

    ------------------------------------------------
       NWT REQUIRED            3 OUTER ITERATIONS 
       AND A TOTAL OF          5 INNER ITERATIONS.
    ------------------------------------------------

 NO OUTPUT CONTROL FOR STRESS PERIOD   37   TIME STEP   14
 
 SOLVING FOR HEAD 
                                                   Max.-Head-Change                         Max.-Flux-Residual
  Residual-Control   Outer-Iter.   Inner-Iter.     Column Row Layer    Maximum-Head-Change  Column Row Layer    Maximum-Flux-Residual          L2-NORM 
          0                 1           2             4    7     1       0.3922284663E-02       4    7    1         0.2060063237E+00      0.4966371850E+00
          0                 2           2             4    7     1      -0.3815316981E-03       4    7    1        -0.2060065661E-01      0.4965304716E-01
          0                 3           1             4    7     1       0.2598089148E-04       4    7    1         0.1442046363E-02      0.3474823914E-02

    ------------------------------------------------
       NWT REQUIRED            3 OUTER ITERATIONS 
       AND A TOTAL OF          5 INNER ITERATIONS.
    ------------------------------------------------

 NO OUTPUT CONTROL FOR STRESS PERIOD   37   TIME STEP   15
 
 SOLVING FOR HEAD 
                                                   Max.-Head-Change                         Max.-Flux-Residual
  Residual-Control   Outer-Iter.   Inner-Iter.     Column Row Layer    Maximum-Head-Change  Column Row Layer    Maximum-Flux-Residual          L2-NORM 
          0                 1           2             4    7     1       0.3880461712E-02       4    7    1         0.2037959383E+00      0.4925485269E+00
          0                 2           2             4    7     1      -0.3774644471E-03       4    7    1        -0.2037961742E-01      0.4924761239E-01
          0                 3           1             4    7     1       0.2570392671E-04       4    7    1         0.1426573619E-02      0.3446392068E-02

    ------------------------------------------------
       NWT REQUIRED            3 OUTER ITERATIONS 
       AND A TOTAL OF          5 INNER ITERATIONS.
    ------------------------------------------------

 NO OUTPUT CONTROL FOR STRESS PERIOD   37   TIME STEP   16
 
 SOLVING FOR HEAD 
                                                   Max.-Head-Change                         Max.-Flux-Residual
  Residual-Control   Outer-Iter.   Inner-Iter.     Column Row Layer    Maximum-Head-Change  Column Row Layer    Maximum-Flux-Residual          L2-NORM 
          0                 1           2             4    7     1       0.3839407746E-02       4    7    1         0.2016274111E+00      0.4885440506E+00
          0                 2           2             4    7     1      -0.3734700163E-03       4    7    1        -0.2016276410E-01      0.4884581363E-01
          0                 3           1             4    7     1       0.2543192120E-04       4    7    1         0.1411393893E-02      0.3418458640E-02

    ------------------------------------------------
       NWT REQUIRED            3 OUTER ITERATIONS 
       AND A TOTAL OF          5 INNER ITERATIONS.
    ------------------------------------------------

 NO OUTPUT CONTROL FOR STRESS PERIOD   37   TIME STEP   17
 
 SOLVING FOR HEAD 
                                                   Max.-Head-Change                         Max.-Flux-Residual
  Residual-Control   Outer-Iter.   Inner-Iter.     Column Row Layer    Maximum-Head-Change  Column Row Layer    Maximum-Flux-Residual          L2-NORM 
          0                 1           2             4    7     1       0.3798839230E-02       4    7    1         0.1994840663E+00      0.4846043186E+00
          0                 2           2             4    7     1      -0.3695237969E-03       4    7    1        -0.1994842904E-01      0.4845279764E-01
          0                 3           1             4    7     1       0.2516319787E-04       4    7    1         0.1396390414E-02      0.3390964180E-02

    ------------------------------------------------
       NWT REQUIRED            3 OUTER ITERATIONS 
       AND A TOTAL OF          5 INNER ITERATIONS.
    ------------------------------------------------

 NO OUTPUT CONTROL FOR STRESS PERIOD   37   TIME STEP   18
 
 SOLVING FOR HEAD 
                                                   Max.-Head-Change                         Max.-Flux-Residual
  Residual-Control   Outer-Iter.   Inner-Iter.     Column Row Layer    Maximum-Head-Change  Column Row Layer    Maximum-Flux-Residual          L2-NORM 
          0                 1           2             4    7     1       0.3759291953E-02       4    7    1         0.1973954261E+00      0.4807554678E+00
          0                 2           2             4    7     1      -0.3656769170E-03       4    7    1        -0.1973956444E-01      0.4806867619E-01
          0                 3           1             4    7     1       0.2490124008E-04       4    7    1         0.1381769911E-02      0.3364189087E-02

    ------------------------------------------------
       NWT REQUIRED            3 OUTER ITERATIONS 
       AND A TOTAL OF          5 INNER ITERATIONS.
    ------------------------------------------------

 NO OUTPUT CONTROL FOR STRESS PERIOD   37   TIME STEP   19
 
 SOLVING FOR HEAD 
                                                   Max.-Head-Change                         Max.-Flux-Residual
  Residual-Control   Outer-Iter.   Inner-Iter.     Column Row Layer    Maximum-Head-Change  Column Row Layer    Maximum-Flux-Residual          L2-NORM 
          0                 1           2             4    7     1       0.3720192708E-02       4    7    1         0.1953301486E+00      0.4769769590E+00
          0                 2           2             4    7     1      -0.3618736185E-03       4    7    1        -0.1953303616E-01      0.4769151227E-01
          0                 3           1             4    7     1       0.2464224923E-04       4    7    1         0.1367312906E-02      0.3337888135E-02

    ------------------------------------------------
       NWT REQUIRED            3 OUTER ITERATIONS 
       AND A TOTAL OF          5 INNER ITERATIONS.
    ------------------------------------------------

 NO OUTPUT CONTROL FOR STRESS PERIOD   37   TIME STEP   20
 
 SOLVING FOR HEAD 
                                                   Max.-Head-Change                         Max.-Flux-Residual
  Residual-Control   Outer-Iter.   Inner-Iter.     Column Row Layer    Maximum-Head-Change  Column Row Layer    Maximum-Flux-Residual          L2-NORM 
          0                 1           2             4    7     1       0.3681539010E-02       4    7    1         0.1932881008E+00      0.4732576755E+00
          0                 2           2             4    7     1      -0.3581136601E-03       4    7    1        -0.1932883085E-01      0.4732032253E-01
          0                 3           1             4    7     1       0.2438621017E-04       4    7    1         0.1353018547E-02      0.3311942710E-02

    ------------------------------------------------
       NWT REQUIRED            3 OUTER ITERATIONS 
       AND A TOTAL OF          5 INNER ITERATIONS.
    ------------------------------------------------

 NO OUTPUT CONTROL FOR STRESS PERIOD   37   TIME STEP   21
 
 SOLVING FOR HEAD 
                                                   Max.-Head-Change                         Max.-Flux-Residual
  Residual-Control   Outer-Iter.   Inner-Iter.     Column Row Layer    Maximum-Head-Change  Column Row Layer    Maximum-Flux-Residual          L2-NORM 
          0                 1           2             4    7     1       0.3643868961E-02       4    7    1         0.1912987422E+00      0.4696240076E+00
          0                 2           2             4    7     1      -0.3544493830E-03       4    7    1        -0.1912989443E-01      0.4695741487E-01
          0                 3           1             4    7     1       0.2413668648E-04       4    7    1         0.1339092982E-02      0.3286611944E-02

    ------------------------------------------------
       NWT REQUIRED            3 OUTER ITERATIONS 
       AND A TOTAL OF          5 INNER ITERATIONS.
    ------------------------------------------------

 NO OUTPUT CONTROL FOR STRESS PERIOD   37   TIME STEP   22
 
 SOLVING FOR HEAD 
                                                   Max.-Head-Change                         Max.-Flux-Residual
  Residual-Control   Outer-Iter.   Inner-Iter.     Column Row Layer    Maximum-Head-Change  Column Row Layer    Maximum-Flux-Residual          L2-NORM 
          0                 1           2             4    7     1       0.3606605898E-02       4    7    1         0.1893307965E+00      0.4660440399E+00
          0                 2           2             4    7     1      -0.3508246963E-03       4    7    1        -0.1893309937E-01      0.4659991235E-01
          0                 3           1             4    7     1       0.2388985922E-04       4    7    1         0.1325317359E-02      0.3261561320E-02

    ------------------------------------------------
       NWT REQUIRED            3 OUTER ITERATIONS 
       AND A TOTAL OF          5 INNER ITERATIONS.
    ------------------------------------------------

 NO OUTPUT CONTROL FOR STRESS PERIOD   37   TIME STEP   23
 
 SOLVING FOR HEAD 
                                                   Max.-Head-Change                         Max.-Flux-Residual
  Residual-Control   Outer-Iter.   Inner-Iter.     Column Row Layer    Maximum-Head-Change  Column Row Layer    Maximum-Flux-Residual          L2-NORM 
          0                 1           2             4    7     1       0.3570021382E-02       4    7    1         0.1873987466E+00      0.4625307791E+00
          0                 2           2             4    7     1      -0.3472660128E-03       4    7    1        -0.1873989388E-01      0.4624897603E-01
          0                 3           1             4    7     1       0.2364752590E-04       4    7    1         0.1311792949E-02      0.3237097243E-02

    ------------------------------------------------
       NWT REQUIRED            3 OUTER ITERATIONS 
       AND A TOTAL OF          5 INNER ITERATIONS.
    ------------------------------------------------

 NO OUTPUT CONTROL FOR STRESS PERIOD   37   TIME STEP   24
 
 SOLVING FOR HEAD 
                                                   Max.-Head-Change                         Max.-Flux-Residual
  Residual-Control   Outer-Iter.   Inner-Iter.     Column Row Layer    Maximum-Head-Change  Column Row Layer    Maximum-Flux-Residual          L2-NORM 
          0                 1           2             4    7     1       0.3534101243E-02       4    7    1         0.1855018786E+00      0.4590832261E+00
          0                 2           2             4    7     1      -0.3437719562E-03       4    7    1        -0.1855020661E-01      0.4590464362E-01
          0                 3           1             4    7     1       0.2340959377E-04       4    7    1         0.1298514849E-02      0.3213012333E-02

    ------------------------------------------------
       NWT REQUIRED            3 OUTER ITERATIONS 
       AND A TOTAL OF          5 INNER ITERATIONS.
    ------------------------------------------------

 NO OUTPUT CONTROL FOR STRESS PERIOD   37   TIME STEP   25
 
 SOLVING FOR HEAD 
                                                   Max.-Head-Change                         Max.-Flux-Residual
  Residual-Control   Outer-Iter.   Inner-Iter.     Column Row Layer    Maximum-Head-Change  Column Row Layer    Maximum-Flux-Residual          L2-NORM 
          0                 1           2             4    7     1       0.3498551857E-02       4    7    1         0.1836246634E+00      0.4556806682E+00
          0                 2           2             4    7     1      -0.3403139631E-03       4    7    1        -0.1836248461E-01      0.4556467786E-01
          0                 3           1             4    7     1       0.2317411735E-04       4    7    1         0.1285374302E-02      0.3189134370E-02

    ------------------------------------------------
       NWT REQUIRED            3 OUTER ITERATIONS 
       AND A TOTAL OF          5 INNER ITERATIONS.
    ------------------------------------------------

 NO OUTPUT CONTROL FOR STRESS PERIOD   37   TIME STEP   26
 
 SOLVING FOR HEAD 
                                                   Max.-Head-Change                         Max.-Flux-Residual
  Residual-Control   Outer-Iter.   Inner-Iter.     Column Row Layer    Maximum-Head-Change  Column Row Layer    Maximum-Flux-Residual          L2-NORM 
          0                 1           2             4    7     1       0.3463644720E-02       4    7    1         0.1817814656E+00      0.4523371434E+00
          0                 2           2             4    7     1      -0.3369184444E-03       4    7    1        -0.1817816442E-01      0.4522995867E-01
          0                 3           1             4    7     1       0.2294289538E-04       4    7    1         0.1272471895E-02      0.3165404853E-02

    ------------------------------------------------
       NWT REQUIRED            3 OUTER ITERATIONS 
       AND A TOTAL OF          5 INNER ITERATIONS.
    ------------------------------------------------

 NO OUTPUT CONTROL FOR STRESS PERIOD   37   TIME STEP   27
 
 SOLVING FOR HEAD 
                                                   Max.-Head-Change                         Max.-Flux-Residual
  Residual-Control   Outer-Iter.   Inner-Iter.     Column Row Layer    Maximum-Head-Change  Column Row Layer    Maximum-Flux-Residual          L2-NORM 
          0                 1           2             4    7     1       0.3429369498E-02       4    7    1         0.1799715678E+00      0.4490579501E+00
          0                 2           2             4    7     1      -0.3335843934E-03       4    7    1        -0.1799717420E-01      0.4490295282E-01
          0                 3           1             4    7     1       0.2271585873E-04       4    7    1         0.1259802579E-02      0.3142960808E-02

    ------------------------------------------------
       NWT REQUIRED            3 OUTER ITERATIONS 
       AND A TOTAL OF          5 INNER ITERATIONS.
    ------------------------------------------------

 NO OUTPUT CONTROL FOR STRESS PERIOD   37   TIME STEP   28
 
 SOLVING FOR HEAD 
                                                   Max.-Head-Change                         Max.-Flux-Residual
  Residual-Control   Outer-Iter.   Inner-Iter.     Column Row Layer    Maximum-Head-Change  Column Row Layer    Maximum-Flux-Residual          L2-NORM 
          0                 1           2             4    7     1       0.3395430351E-02       4    7    1         0.1781796393E+00      0.4458172358E+00
          0                 2           2             4    7     1      -0.3302830335E-03       4    7    1        -0.1781798091E-01      0.4457916295E-01
          0                 3           1             4    7     1       0.2249104800E-04       4    7    1         0.1247259034E-02      0.3120334102E-02

    ------------------------------------------------
       NWT REQUIRED            3 OUTER ITERATIONS 
       AND A TOTAL OF          5 INNER ITERATIONS.
    ------------------------------------------------

 NO OUTPUT CONTROL FOR STRESS PERIOD   37   TIME STEP   29
 
 SOLVING FOR HEAD 
                                                   Max.-Head-Change                         Max.-Flux-Residual
  Residual-Control   Outer-Iter.   Inner-Iter.     Column Row Layer    Maximum-Head-Change  Column Row Layer    Maximum-Flux-Residual          L2-NORM 
          0                 1           2             4    7     1       0.3362375443E-02       4    7    1         0.1764347256E+00      0.4426452317E+00
          0                 2           2             4    7     1      -0.3270676863E-03       4    7    1        -0.1764348914E-01      0.4426218019E-01
          0                 3           1             4    7     1       0.2227209492E-04       4    7    1         0.1235044598E-02      0.3098123439E-02

    ------------------------------------------------
       NWT REQUIRED            3 OUTER ITERATIONS 
       AND A TOTAL OF          5 INNER ITERATIONS.
    ------------------------------------------------

 NO OUTPUT CONTROL FOR STRESS PERIOD   37   TIME STEP   30



 STREAM LISTING     PERIOD     37   STEP       30

 LAYER ROW COL. STREAM  RCH.  FLOW INTO     FLOW TO   FLOW OUT OF   OVRLND.     DIRECT     STREAM       STREAM     STREAM     STREAM   STREAMBED  STREAMBED
                SEG.NO.  NO.  STRM. RCH.    AQUIFER    STRM. RCH.    RUNOFF     PRECIP       ET          HEAD       DEPTH      WIDTH   CONDCTNC.   GRADIENT

   1    1    1     1     1    1.7249E+01  2.0269E-01   1.7047E+01  0.000E+00  0.000E+00  0.000E+00  1.09410E+03  1.052E+00  1.112E+01  5.002E-02  1.351E+00
   1    2    2     1     2    1.7047E+01  3.1257E-01   1.6734E+01  0.000E+00  0.000E+00  0.000E+00  1.08911E+03  1.047E+00  1.103E+01  7.723E-02  1.349E+00
   1    3    3     1     3    1.6734E+01  2.6529E-01   1.6469E+01  0.000E+00  0.000E+00  0.000E+00  1.08346E+03  1.042E+00  1.094E+01  6.563E-02  1.347E+00
   1    3    4     1     4    1.6469E+01  2.4324E-01   1.6226E+01  0.000E+00  0.000E+00  0.000E+00  1.07845E+03  1.038E+00  1.085E+01  6.024E-02  1.346E+00
   1    4    5     2     1    1.4226E+01  3.0073E-01   1.3925E+01  0.000E+00  0.000E+00  0.000E+00  1.07279E+03  8.555E-01  1.200E+01  7.800E-02  1.285E+00
   1    5    6     2     2    1.3925E+01  2.3075E-01   1.3694E+01  0.000E+00  0.000E+00  0.000E+00  1.06736E+03  8.458E-01  1.200E+01  6.000E-02  1.282E+00
   1    6    6     2     3    1.3694E+01  2.3024E-01   1.3464E+01  0.000E+00  0.000E+00  0.000E+00  1.06263E+03  8.373E-01  1.200E+01  6.000E-02  1.279E+00
   1    7    6     2     4    1.3464E+01  2.2972E-01   1.3234E+01  0.000E+00  0.000E+00  0.000E+00  1.05790E+03  8.287E-01  1.200E+01  6.000E-02  1.276E+00
   1    8    6     2     5    1.3234E+01  2.2921E-01   1.3005E+01  0.000E+00  0.000E+00  0.000E+00  1.05318E+03  8.202E-01  1.200E+01  6.000E-02  1.273E+00
   1    3    5     3     1    2.0000E+00  2.8252E-01   1.7175E+00  0.000E+00  0.000E+00  0.000E+00  1.07555E+03  1.909E+00  9.636E+00  7.227E-02  1.955E+00
   1    3    6     3     2    1.7175E+00  2.4905E-01   1.4684E+00  0.000E+00  0.000E+00  0.000E+00  1.07264E+03  1.727E+00  8.909E+00  6.682E-02  1.864E+00
   1    3    7     3     3    1.4684E+00  1.9718E-01   1.2712E+00  0.000E+00  0.000E+00  0.000E+00  1.06987E+03  1.555E+00  8.218E+00  5.547E-02  1.777E+00
   1    4    8     3     4    1.2712E+00  2.2567E-01   1.0456E+00  0.000E+00  0.000E+00  0.000E+00  1.06682E+03  1.364E+00  7.455E+00  6.709E-02  1.682E+00
   1    5    8     3     5    1.0456E+00  1.5790E-01   8.8768E-01  0.000E+00  0.000E+00  0.000E+00  1.06362E+03  1.164E+00  6.655E+00  4.991E-02  1.582E+00
   1    6    8     3     6    8.8768E-01  5.5980E-02   8.3170E-01  0.000E+00  0.000E+00  0.000E+00  1.06158E+03  1.036E+00  6.145E+00  1.844E-02  1.518E+00
   1    5   10     4     1    1.0000E+01  9.0919E-02   9.9091E+00  0.000E+00  0.000E+00  0.000E+00  1.07836E+03  6.368E-01  1.000E+01  2.500E-02  1.212E+00
   1    5    9     4     2    9.9091E+00  1.8158E-01   9.7275E+00  0.000E+00  0.000E+00  0.000E+00  1.07154E+03  6.315E-01  1.000E+01  5.000E-02  1.211E+00
   1    6    8     4     3    9.7275E+00  1.2689E-01   9.6006E+00  0.000E+00  0.000E+00  0.000E+00  1.06381E+03  6.256E-01  1.000E+01  3.500E-02  1.209E+00
   1    6    8     5     1    1.0432E+01  2.2686E-01   1.0205E+01  0.000E+00  0.000E+00  0.000E+00  1.05868E+03  6.790E-01  1.542E+01  6.166E-02  1.226E+00
   1    7    7     5     2    1.0205E+01  2.7894E-01   9.9265E+00  0.000E+00  0.000E+00  0.000E+00  1.05417E+03  6.732E-01  1.519E+01  7.594E-02  1.224E+00
   1    8    7     5     3    9.9265E+00  1.9221E-01   9.7343E+00  0.000E+00  0.000E+00  0.000E+00  1.04992E+03  6.676E-01  1.497E+01  5.241E-02  1.223E+00
   1    8    6     5     4    9.7343E+00  1.3577E-01   9.5985E+00  0.000E+00  0.000E+00  0.000E+00  1.04691E+03  6.637E-01  1.482E+01  3.706E-02  1.221E+00
   1    9    6     6     1    2.2604E+01  2.4874E-01   2.2355E+01  0.000E+00  0.000E+00  0.000E+00  1.04387E+03  1.146E+00  1.200E+01  6.000E-02  1.382E+00
   1   10    7     6     2    2.2355E+01  2.4828E-01   2.2107E+01  0.000E+00  0.000E+00  0.000E+00  1.03932E+03  1.138E+00  1.200E+01  6.000E-02  1.379E+00
   1   11    7     6     3    2.2107E+01  2.4782E-01   2.1859E+01  0.000E+00  0.000E+00  0.000E+00  1.03477E+03  1.130E+00  1.200E+01  6.000E-02  1.377E+00
   1   12    7     6     4    2.1859E+01  2.4736E-01   2.1611E+01  0.000E+00  0.000E+00  0.000E+00  1.03021E+03  1.123E+00  1.200E+01  6.000E-02  1.374E+00
   1   13    7     6     5    2.1611E+01 -6.4233E-03   2.1618E+01  0.000E+00  0.000E+00  0.000E+00  1.02703E+03  1.119E+00  1.200E+01  2.400E-01 -8.921E-03
   1   14    9     7     1    1.5000E+02  1.3414E+00   1.4866E+02  0.000E+00  0.000E+00  0.000E+00  1.03987E+03  2.288E+00  5.529E+01  5.593E-01  7.995E-01
   1   13    8     7     2    1.4866E+02  1.8439E+00   1.4681E+02  0.000E+00  0.000E+00  0.000E+00  1.03478E+03  2.279E+00  5.526E+01  6.148E-01  9.998E-01
   1   13    7     7     3    1.4681E+02  1.4715E+00   1.4534E+02  0.000E+00  0.000E+00  0.000E+00  1.02969E+03  2.270E+00  5.522E+01  5.584E-01  8.783E-01
   1   13    6     8     1    1.6696E+02  9.0320E-01   1.6606E+02  0.000E+00  0.000E+00  0.000E+00  1.02480E+03  2.929E+00  4.248E+01  4.328E-01  6.956E-01
   1   13    5     8     2    1.6606E+02  1.5673E-01   1.6590E+02  0.000E+00  0.000E+00  0.000E+00  1.01855E+03  2.926E+00  4.242E+01  4.323E-01  1.208E-01
   1   13    4     8     3    1.6590E+02 -2.5074E+00   1.6841E+02  0.000E+00  0.000E+00  0.000E+00  1.01231E+03  2.934E+00  4.254E+01  4.335E+00 -1.928E-01
   1   13    3     8     4    1.6841E+02 -3.6758E+00   1.7208E+02  0.000E+00  0.000E+00  0.000E+00  1.00608E+03  2.954E+00  4.283E+01  4.365E+00 -2.807E-01
   1   13    2     8     5    1.7208E+02 -2.5833E+00   1.7467E+02  0.000E+00  0.000E+00  0.000E+00  9.99849E+02  2.974E+00  4.312E+01  4.394E+00 -1.960E-01
   1   13    1     8     6    1.7467E+02 -1.9879E+00   1.7666E+02  0.000E+00  0.000E+00  0.000E+00  9.94864E+02  2.989E+00  4.334E+01  2.650E+00 -2.501E-01
   1    8    6     9     1    0.0000E+00  0.0000E+00   0.0000E+00  0.000E+00  0.000E+00  0.000E+00  1.07875E+03  0.000E+00  4.000E+00  0.000E+00  1.000E+00
   1    8    5     9     2    0.0000E+00  0.0000E+00   0.0000E+00  0.000E+00  0.000E+00  0.000E+00  1.07825E+03  0.000E+00  4.000E+00  0.000E+00  1.000E+00





UNSATURATED ZONE PACKAGE VOLUMETRIC BUDGET FOR  TIME STEP    30 STRESS PERIOD   37
  ------------------------------------------------------------------------------



     CUMULATIVE VOLUMES      L**3       RATES FOR THIS TIME STEP      L**3/T
     ------------------                 ------------------------

           IN:                                      IN:
           ---                                      ---
        INFILTRATION =  1611622030.1917          INFILTRATION =           4.4075

          OUT:                                     OUT:
          ----                                     ----
              UZF ET =  1493316455.2769                UZF ET =           0.7250
        UZF RECHARGE =     1188452.4670          UZF RECHARGE =       0.0000E+00

            IN - OUT =   117117122.4478              IN - OUT =           3.6825

          STORAGE:                                 STORAGE:
          --------                                 --------
      STORAGE CHANGE =   117118081.0570        STORAGE CHANGE =           3.6825

 PERCENT DISCREPANCY IS DIFFERENCE BETWEEN IN-OUT MINUS CHANGE IN STORAGE
 DIVIDED BY THE AVERAGE OF IN AND OUT TIMES 100

 PERCENT DISCREPANCY =          -0.00     PERCENT DISCREPANCY =           0.00






1
  VOLUMETRIC BUDGET FOR ENTIRE MODEL AT END OF TIME STEP   30, STRESS PERIOD  37
  ------------------------------------------------------------------------------

     CUMULATIVE VOLUMES      L**3       RATES FOR THIS TIME STEP      L**3/T
     ------------------                 ------------------------

           IN:                                      IN:
           ---                                      ---
               AG WELLS  =   219671824.0000                 AG WELLS  =           0.0000
      DIVERSION SEGMENTS =   974557696.0000        DIVERSION SEGMENTS =           0.0000
           GW IRRIGATION =           0.0000             GW IRRIGATION =           0.0000
           SW IRRIGATION =           0.0000             SW IRRIGATION =           0.0000
        SYSTEM LOSSES GW =           0.0000          SYSTEM LOSSES GW =           0.0000
        SYSTEM LOSSES SW =           0.0000          SYSTEM LOSSES SW =           0.0000

                TOTAL IN =  1194229504.0000                  TOTAL IN =           0.0000

          OUT:                                     OUT:
          ----                                     ----
               AG WELLS  =           0.0000                 AG WELLS  =           0.0000
      DIVERSION SEGMENTS =           0.0000        DIVERSION SEGMENTS =           0.0000
           GW IRRIGATION =   219671824.0000             GW IRRIGATION =           0.0000
           SW IRRIGATION =   974577408.0000             SW IRRIGATION =           0.0000
        SYSTEM LOSSES GW =           0.0000          SYSTEM LOSSES GW =           0.0000
        SYSTEM LOSSES SW =           0.0000          SYSTEM LOSSES SW =           0.0000

               TOTAL OUT =  1194249216.0000                 TOTAL OUT =           0.0000

                IN - OUT =      -19712.0000                  IN - OUT =           0.0000

     PERCENT DISCREPANCY =          -0.00         PERCENT DISCREPANCY =           0.00



1
  VOLUMETRIC BUDGET FOR ENTIRE MODEL AT END OF TIME STEP   30, STRESS PERIOD  37
  ------------------------------------------------------------------------------

     CUMULATIVE VOLUMES      L**3       RATES FOR THIS TIME STEP      L**3/T
     ------------------                 ------------------------

           IN:                                      IN:
           ---                                      ---
             STORAGE     =   373095776.0000               STORAGE     =           1.1092
       CONSTANT HEAD     =           0.0000         CONSTANT HEAD     =           0.0000
     HEAD DEP BOUNDS     =    27088766.0000       HEAD DEP BOUNDS     =           0.2861
      STREAM LEAKAGE     =  1130043648.0000        STREAM LEAKAGE     =          11.3548
        UZF RECHARGE     =     1188452.5000          UZF RECHARGE     =           0.0000
               GW ET     =           0.0000                 GW ET     =           0.0000
     SURFACE LEAKAGE     =           0.0000       SURFACE LEAKAGE     =           0.0000
           AG WELLS      =           0.0000             AG WELLS      =           0.0000

                TOTAL IN =  1531416704.0000                  TOTAL IN =          12.7502

          OUT:                                     OUT:
          ----                                     ----
             STORAGE     =   255211584.0000               STORAGE     =           1.7002
       CONSTANT HEAD     =           0.0000         CONSTANT HEAD     =           0.0000
     HEAD DEP BOUNDS     =    27544646.0000       HEAD DEP BOUNDS     =           0.2893
      STREAM LEAKAGE     =  1025726272.0000        STREAM LEAKAGE     =          10.7608
        UZF RECHARGE     =           0.0000          UZF RECHARGE     =           0.0000
               GW ET     =     3265349.0000                 GW ET     =           0.0000
     SURFACE LEAKAGE     =           0.0000       SURFACE LEAKAGE     =           0.0000
           AG WELLS      =   219671824.0000             AG WELLS      =           0.0000

               TOTAL OUT =  1531419776.0000                 TOTAL OUT =          12.7503

                IN - OUT =       -3072.0000                  IN - OUT =      -1.6499E-04

     PERCENT DISCREPANCY =          -0.00         PERCENT DISCREPANCY =          -0.00






         TIME SUMMARY AT END OF TIME STEP   30 IN STRESS PERIOD   37
                    SECONDS     MINUTES      HOURS       DAYS        YEARS
                    -----------------------------------------------------------
   TIME STEP LENGTH  87667.      1461.1      24.352      1.0147     2.77799E-03
 STRESS PERIOD TIME 2.63000E+06  43833.      730.56      30.440     8.33397E-02
         TOTAL TIME 9.47660E+07 1.57943E+06  26324.      1096.8      3.0030    
1
1
                            STRESS PERIOD NO.   38, LENGTH =   2630000.    
                            -----------------------------------------------

                              NUMBER OF TIME STEPS =    30

                               MULTIPLIER FOR DELT =     1.000

                            INITIAL TIME STEP SIZE =   87666.66    

 REUSING NON-PARAMETER GHB CELLS FROM LAST STRESS PERIOD

      2 GHB CELLS

 REUSING STREAM SEGMENT DATA FROM LAST STRESS PERIOD



            AREAL INFILTRATION RATE
 READING ON UNIT   19 WITH FORMAT: (10F4.0)            

            1           2           3           4           5           6           7           8           9          10
 ........................................................................................................................
   1   1.2000E-09   0.000       0.000       0.000       0.000       0.000       0.000       0.000       0.000       0.000    
   2   2.1000E-09  2.0000E-09  8.0000E-10  8.5000E-09   0.000       0.000       0.000       0.000       0.000       0.000    
   3   5.0000E-10  1.1000E-09  8.8000E-09  5.5000E-09   0.000       0.000       0.000       0.000       0.000       0.000    
   4   8.5000E-09  1.1000E-09  1.1000E-09  1.1000E-09  2.0000E-09   0.000       0.000       0.000       0.000       0.000    
   5   8.5000E-09  1.1000E-09  1.1000E-09  1.1000E-09  1.1000E-09   0.000       0.000       0.000       0.000       0.000    
   6   8.5000E-09  5.2000E-09  2.1000E-09  1.1000E-09  1.5000E-09   0.000       0.000       0.000       0.000       0.000    
   7   8.5000E-09  5.2000E-09  2.1000E-09  1.2000E-09  2.0000E-09   0.000       0.000       0.000       0.000       0.000    
   8   5.0000E-10  5.2000E-09  2.1000E-09  1.2000E-09  5.0000E-09   0.000       0.000       0.000       0.000       0.000    
   9   5.0000E-10  5.2000E-09  2.1000E-09  1.2000E-09  5.0000E-09   0.000       0.000       0.000       0.000       0.000    
  10   5.0000E-10  5.2000E-09  2.1000E-09  1.2000E-09  5.8000E-09   0.000       0.000       0.000       0.000       0.000    
  11   1.0000E-10  1.1000E-09  1.1000E-09  1.2000E-09  5.0000E-09   0.000       0.000       0.000       0.000       0.000    
  12   1.1000E-09  1.1000E-09  1.1000E-09  1.1000E-09  2.0000E-09   0.000       0.000       0.000       0.000       0.000    
  13   1.1000E-09  2.2000E-09  2.2000E-09  2.1000E-09  1.0000E-09   0.000       0.000       0.000       0.000       0.000    
  14   2.0000E-10  5.5000E-09  5.5000E-09  5.2000E-09  1.0000E-09   0.000       0.000       0.000       0.000       0.000    
  15    0.000      8.8000E-09  8.8000E-09   0.000       0.000       0.000       0.000       0.000       0.000       0.000    

                  ET RATE =  5.000000E-10

 USING ET EXTINCTION DEPTH FROM PREVIOUS STRESS PERIOD. CURRENT PERIOD IS:      38

 USING EXTINCTION WATER CONTENT FROM PREVIOUS STRESS PERIOD. CURRENT PERIOD IS:      38

 USING AIR ENTRY PRESSURE FROM PREVIOUS STRESS PERIOD. CURRENT PERIOD IS:      38

 USING ROOT PRESSURE HEAD FROM PREVIOUS STRESS PERIOD. CURRENT PERIOD IS:      38

 USING ROOT ACTIVITY FROM PREVIOUS STRESS PERIOD. CURRENT PERIOD IS:      38

 PROCESSING AG STRESS PERIOD DATA

 READING AG STRESS PERIOD DATA

 READING IRRIGATION SEGMENT

 READING IRRIGATION WELL

 READING SUPPLEMENTAL WELL

 END PROCESSING AG STRESS PERIOD DATA OPTIONS
 
 SOLVING FOR HEAD 
                                                   Max.-Head-Change                         Max.-Flux-Residual
  Residual-Control   Outer-Iter.   Inner-Iter.     Column Row Layer    Maximum-Head-Change  Column Row Layer    Maximum-Flux-Residual          L2-NORM 
          0                 1           2             4    7     1       0.3329635938E-02       4    7    1         0.1747060687E+00      0.4395164506E+00
          0                 2           2             4    7     1      -0.3238830193E-03       4    7    1        -0.1747062305E-01      0.4394949304E-01
          0                 3           1             4    7     1       0.2205523073E-04       4    7    1         0.1222943980E-02      0.3076271657E-02

    ------------------------------------------------
       NWT REQUIRED            3 OUTER ITERATIONS 
       AND A TOTAL OF          5 INNER ITERATIONS.
    ------------------------------------------------

 NO OUTPUT CONTROL FOR STRESS PERIOD   38   TIME STEP    1
 
 SOLVING FOR HEAD 
                                                   Max.-Head-Change                         Max.-Flux-Residual
  Residual-Control   Outer-Iter.   Inner-Iter.     Column Row Layer    Maximum-Head-Change  Column Row Layer    Maximum-Flux-Residual          L2-NORM 
          0                 1           2             4    7     1       0.3297189172E-02       4    7    1         0.1729937651E+00      0.4465863358E+00
          0                 2           2             4    7     1      -0.3207268280E-03       4    7    1        -0.1729939229E-01      0.4462890435E-01
          0                 3           1             4    7     1       0.2184030631E-04       4    7    1         0.1210957837E-02      0.3121305812E-02

    ------------------------------------------------
       NWT REQUIRED            3 OUTER ITERATIONS 
       AND A TOTAL OF          5 INNER ITERATIONS.
    ------------------------------------------------

 NO OUTPUT CONTROL FOR STRESS PERIOD   38   TIME STEP    2
 
 SOLVING FOR HEAD 
                                                   Max.-Head-Change                         Max.-Flux-Residual
  Residual-Control   Outer-Iter.   Inner-Iter.     Column Row Layer    Maximum-Head-Change  Column Row Layer    Maximum-Flux-Residual          L2-NORM 
          0                 1           2             4    7     1       0.3265563943E-02       4    7    1         0.1713262297E+00      0.4626329841E+00
          0                 2           2             4    7     1      -0.3176505504E-03       4    7    1        -0.1713263839E-01      0.4617398845E-01
          0                 3           1             4    7     1       0.2163082325E-04       4    7    1         0.1199285067E-02      0.3224199251E-02

    ------------------------------------------------
       NWT REQUIRED            3 OUTER ITERATIONS 
       AND A TOTAL OF          5 INNER ITERATIONS.
    ------------------------------------------------

 NO OUTPUT CONTROL FOR STRESS PERIOD   38   TIME STEP    3
 
 SOLVING FOR HEAD 
                                                   Max.-Head-Change                         Max.-Flux-Residual
  Residual-Control   Outer-Iter.   Inner-Iter.     Column Row Layer    Maximum-Head-Change  Column Row Layer    Maximum-Flux-Residual          L2-NORM 
          0                 1           2             4    7     1       0.3234192252E-02       4    7    1         0.1696716992E+00      0.4573891673E+00
          0                 2           2             4    7     1      -0.3145989345E-03       4    7    1        -0.1696718497E-01      0.4566260198E-01
          0                 3           1             4    7     1       0.2142301915E-04       4    7    1         0.1187703305E-02      0.3189139788E-02

    ------------------------------------------------
       NWT REQUIRED            3 OUTER ITERATIONS 
       AND A TOTAL OF          5 INNER ITERATIONS.
    ------------------------------------------------

 NO OUTPUT CONTROL FOR STRESS PERIOD   38   TIME STEP    4
 
 SOLVING FOR HEAD 
                                                   Max.-Head-Change                         Max.-Flux-Residual
  Residual-Control   Outer-Iter.   Inner-Iter.     Column Row Layer    Maximum-Head-Change  Column Row Layer    Maximum-Flux-Residual          L2-NORM 
          0                 1           2             4    7     1       0.3203348422E-02       4    7    1         0.1680451098E+00      0.4524805782E+00
          0                 2           2             4    7     1      -0.3115986660E-03       4    7    1        -0.1680452570E-01      0.4517971368E-01
          0                 3           1             4    7     1       0.2121871213E-04       4    7    1         0.1176317157E-02      0.3156032540E-02

    ------------------------------------------------
       NWT REQUIRED            3 OUTER ITERATIONS 
       AND A TOTAL OF          5 INNER ITERATIONS.
    ------------------------------------------------

 NO OUTPUT CONTROL FOR STRESS PERIOD   38   TIME STEP    5
 
 SOLVING FOR HEAD 
                                                   Max.-Head-Change                         Max.-Flux-Residual
  Residual-Control   Outer-Iter.   Inner-Iter.     Column Row Layer    Maximum-Head-Change  Column Row Layer    Maximum-Flux-Residual          L2-NORM 
          0                 1           2             4    7     1       0.3173021449E-02       4    7    1         0.1664458894E+00      0.4478609667E+00
          0                 2           2             4    7     1      -0.3086486733E-03       4    7    1        -0.1664460331E-01      0.4472584685E-01
          0                 3           1             4    7     1       0.2101782835E-04       4    7    1         0.1165122591E-02      0.3124189256E-02

    ------------------------------------------------
       NWT REQUIRED            3 OUTER ITERATIONS 
       AND A TOTAL OF          5 INNER ITERATIONS.
    ------------------------------------------------

 NO OUTPUT CONTROL FOR STRESS PERIOD   38   TIME STEP    6
 
 SOLVING FOR HEAD 
                                                   Max.-Head-Change                         Max.-Flux-Residual
  Residual-Control   Outer-Iter.   Inner-Iter.     Column Row Layer    Maximum-Head-Change  Column Row Layer    Maximum-Flux-Residual          L2-NORM 
          0                 1           2             4    7     1       0.3143199309E-02       4    7    1         0.1648734675E+00      0.4434904902E+00
          0                 2           2             4    7     1      -0.3057477877E-03       4    7    1        -0.1648736078E-01      0.4429654951E-01
          0                 3           1             4    7     1       0.2082028972E-04       4    7    1         0.1154115632E-02      0.3096099483E-02

    ------------------------------------------------
       NWT REQUIRED            3 OUTER ITERATIONS 
       AND A TOTAL OF          5 INNER ITERATIONS.
    ------------------------------------------------

 NO OUTPUT CONTROL FOR STRESS PERIOD   38   TIME STEP    7
 
 SOLVING FOR HEAD 
                                                   Max.-Head-Change                         Max.-Flux-Residual
  Residual-Control   Outer-Iter.   Inner-Iter.     Column Row Layer    Maximum-Head-Change  Column Row Layer    Maximum-Flux-Residual          L2-NORM 
          0                 1           2             4    7     1       0.3113600905E-02       4    7    1         0.1633124249E+00      0.4393346748E+00
          0                 2           2             4    7     1      -0.3028686653E-03       4    7    1        -0.1633125622E-01      0.4388713694E-01
          0                 3           1             4    7     1       0.2062423171E-04       4    7    1         0.1143188294E-02      0.3068070832E-02

    ------------------------------------------------
       NWT REQUIRED            3 OUTER ITERATIONS 
       AND A TOTAL OF          5 INNER ITERATIONS.
    ------------------------------------------------

 NO OUTPUT CONTROL FOR STRESS PERIOD   38   TIME STEP    8
 
 SOLVING FOR HEAD 
                                                   Max.-Head-Change                         Max.-Flux-Residual
  Residual-Control   Outer-Iter.   Inner-Iter.     Column Row Layer    Maximum-Head-Change  Column Row Layer    Maximum-Flux-Residual          L2-NORM 
          0                 1           2             4    7     1       0.3084497896E-02       4    7    1         0.1617777785E+00      0.4353764577E+00
          0                 2           2             4    7     1      -0.3000377316E-03       4    7    1        -0.1617779125E-01      0.4349677814E-01
          0                 3           1             4    7     1       0.2043145589E-04       4    7    1         0.1132445760E-02      0.3040884145E-02

    ------------------------------------------------
       NWT REQUIRED            3 OUTER ITERATIONS 
       AND A TOTAL OF          5 INNER ITERATIONS.
    ------------------------------------------------

 NO OUTPUT CONTROL FOR STRESS PERIOD   38   TIME STEP    9
 
 SOLVING FOR HEAD 
                                                   Max.-Head-Change                         Max.-Flux-Residual
  Residual-Control   Outer-Iter.   Inner-Iter.     Column Row Layer    Maximum-Head-Change  Column Row Layer    Maximum-Flux-Residual          L2-NORM 
          0                 1           2             4    7     1       0.3055880837E-02       4    7    1         0.1602688178E+00      0.4315887936E+00
          0                 2           2             4    7     1      -0.2972540679E-03       4    7    1        -0.1602689488E-01      0.4312279991E-01
          0                 3           1             4    7     1       0.2024189858E-04       4    7    1         0.1121883007E-02      0.3015368237E-02

    ------------------------------------------------
       NWT REQUIRED            3 OUTER ITERATIONS 
       AND A TOTAL OF          5 INNER ITERATIONS.
    ------------------------------------------------

 NO OUTPUT CONTROL FOR STRESS PERIOD   38   TIME STEP   10
 
 SOLVING FOR HEAD 
                                                   Max.-Head-Change                         Max.-Flux-Residual
  Residual-Control   Outer-Iter.   Inner-Iter.     Column Row Layer    Maximum-Head-Change  Column Row Layer    Maximum-Flux-Residual          L2-NORM 
          0                 1           2             4    7     1       0.3027730215E-02       4    7    1         0.1587850530E+00      0.4279535211E+00
          0                 2           2             4    7     1      -0.2945157755E-03       4    7    1        -0.1587851811E-01      0.4276375415E-01
          0                 3           1             4    7     1       0.2005543129E-04       4    7    1         0.1111496634E-02      0.2990367734E-02

    ------------------------------------------------
       NWT REQUIRED            3 OUTER ITERATIONS 
       AND A TOTAL OF          5 INNER ITERATIONS.
    ------------------------------------------------

 NO OUTPUT CONTROL FOR STRESS PERIOD   38   TIME STEP   11
 
 SOLVING FOR HEAD 
                                                   Max.-Head-Change                         Max.-Flux-Residual
  Residual-Control   Outer-Iter.   Inner-Iter.     Column Row Layer    Maximum-Head-Change  Column Row Layer    Maximum-Flux-Residual          L2-NORM 
          0                 1           2             4    7     1       0.3000048302E-02       4    7    1         0.1573254724E+00      0.4244552954E+00
          0                 2           2             4    7     1      -0.2918230759E-03       4    7    1        -0.1573255977E-01      0.4241735334E-01
          0                 3           1             4    7     1       0.1987206819E-04       4    7    1         0.1101279536E-02      0.2966880834E-02

    ------------------------------------------------
       NWT REQUIRED            3 OUTER ITERATIONS 
       AND A TOTAL OF          5 INNER ITERATIONS.
    ------------------------------------------------

 NO OUTPUT CONTROL FOR STRESS PERIOD   38   TIME STEP   12
 
 SOLVING FOR HEAD 
                                                   Max.-Head-Change                         Max.-Flux-Residual
  Residual-Control   Outer-Iter.   Inner-Iter.     Column Row Layer    Maximum-Head-Change  Column Row Layer    Maximum-Flux-Residual          L2-NORM 
          0                 1           2             4    7     1       0.2972543086E-02       4    7    1         0.1558753977E+00      0.4210756501E+00
          0                 2           2             4    7     1      -0.2891475643E-03       4    7    1        -0.1558755203E-01      0.4208285095E-01
          0                 3           1             4    7     1       0.1968987569E-04       4    7    1         0.1091128983E-02      0.2943716745E-02

    ------------------------------------------------
       NWT REQUIRED            3 OUTER ITERATIONS 
       AND A TOTAL OF          5 INNER ITERATIONS.
    ------------------------------------------------

 NO OUTPUT CONTROL FOR STRESS PERIOD   38   TIME STEP   13
 
 SOLVING FOR HEAD 
                                                   Max.-Head-Change                         Max.-Flux-Residual
  Residual-Control   Outer-Iter.   Inner-Iter.     Column Row Layer    Maximum-Head-Change  Column Row Layer    Maximum-Flux-Residual          L2-NORM 
          0                 1           2             4    7     1       0.2945496070E-02       4    7    1         0.1544492807E+00      0.4178091115E+00
          0                 2           2             4    7     1      -0.2865166231E-03       4    7    1        -0.1544494005E-01      0.4175894643E-01
          0                 3           1             4    7     1       0.1951071876E-04       4    7    1         0.1081146156E-02      0.2921040459E-02

    ------------------------------------------------
       NWT REQUIRED            3 OUTER ITERATIONS 
       AND A TOTAL OF          5 INNER ITERATIONS.
    ------------------------------------------------

 NO OUTPUT CONTROL FOR STRESS PERIOD   38   TIME STEP   14
 
 SOLVING FOR HEAD 
                                                   Max.-Head-Change                         Max.-Flux-Residual
  Residual-Control   Outer-Iter.   Inner-Iter.     Column Row Layer    Maximum-Head-Change  Column Row Layer    Maximum-Flux-Residual          L2-NORM 
          0                 1           2             4    7     1       0.2918897214E-02       4    7    1         0.1530469210E+00      0.4146326921E+00
          0                 2           2             4    7     1      -0.2839292758E-03       4    7    1        -0.1530470381E-01      0.4144357865E-01
          0                 3           1             4    7     1       0.1933452994E-04       4    7    1         0.1071329619E-02      0.2899155120E-02

    ------------------------------------------------
       NWT REQUIRED            3 OUTER ITERATIONS 
       AND A TOTAL OF          5 INNER ITERATIONS.
    ------------------------------------------------

 NO OUTPUT CONTROL FOR STRESS PERIOD   38   TIME STEP   15
 
 SOLVING FOR HEAD 
                                                   Max.-Head-Change                         Max.-Flux-Residual
  Residual-Control   Outer-Iter.   Inner-Iter.     Column Row Layer    Maximum-Head-Change  Column Row Layer    Maximum-Flux-Residual          L2-NORM 
          0                 1           2             4    7     1       0.2892726923E-02       4    7    1         0.1516677979E+00      0.4115517279E+00
          0                 2           2             4    7     1      -0.2813836165E-03       4    7    1        -0.1516679126E-01      0.4113778712E-01
          0                 3           1             4    7     1       0.1916117979E-04       4    7    1         0.1061675732E-02      0.2877973272E-02

    ------------------------------------------------
       NWT REQUIRED            3 OUTER ITERATIONS 
       AND A TOTAL OF          5 INNER ITERATIONS.
    ------------------------------------------------

 NO OUTPUT CONTROL FOR STRESS PERIOD   38   TIME STEP   16
 
 SOLVING FOR HEAD 
                                                   Max.-Head-Change                         Max.-Flux-Residual
  Residual-Control   Outer-Iter.   Inner-Iter.     Column Row Layer    Maximum-Head-Change  Column Row Layer    Maximum-Flux-Residual          L2-NORM 
          0                 1           2             4    7     1       0.2866981437E-02       4    7    1         0.1503108952E+00      0.4085552851E+00
          0                 2           2             4    7     1      -0.2788792792E-03       4    7    1        -0.1503110073E-01      0.4083989972E-01
          0                 3           1             4    7     1       0.1899064415E-04       4    7    1         0.1052177408E-02      0.2857443485E-02

    ------------------------------------------------
       NWT REQUIRED            3 OUTER ITERATIONS 
       AND A TOTAL OF          5 INNER ITERATIONS.
    ------------------------------------------------

 NO OUTPUT CONTROL FOR STRESS PERIOD   38   TIME STEP   17
 
 SOLVING FOR HEAD 
                                                   Max.-Head-Change                         Max.-Flux-Residual
  Residual-Control   Outer-Iter.   Inner-Iter.     Column Row Layer    Maximum-Head-Change  Column Row Layer    Maximum-Flux-Residual          L2-NORM 
          0                 1           2             4    7     1       0.2841381252E-02       4    7    1         0.1489612217E+00      0.4056301782E+00
          0                 2           2             4    7     1      -0.2763890758E-03       4    7    1        -0.1489613313E-01      0.4054924821E-01
          0                 3           1             4    7     1       0.1882107059E-04       4    7    1         0.1042729680E-02      0.2837191154E-02

    ------------------------------------------------
       NWT REQUIRED            3 OUTER ITERATIONS 
       AND A TOTAL OF          5 INNER ITERATIONS.
    ------------------------------------------------

 NO OUTPUT CONTROL FOR STRESS PERIOD   38   TIME STEP   18
 
 SOLVING FOR HEAD 
                                                   Max.-Head-Change                         Max.-Flux-Residual
  Residual-Control   Outer-Iter.   Inner-Iter.     Column Row Layer    Maximum-Head-Change  Column Row Layer    Maximum-Flux-Residual          L2-NORM 
          0                 1           2             4    7     1       0.2816198860E-02       4    7    1         0.1476338786E+00      0.4027707556E+00
          0                 2           2             4    7     1      -0.2739395123E-03       4    7    1        -0.1476339857E-01      0.4026457892E-01
          0                 3           1             4    7     1       0.1865426446E-04       4    7    1         0.1033438266E-02      0.2817310167E-02

    ------------------------------------------------
       NWT REQUIRED            3 OUTER ITERATIONS 
       AND A TOTAL OF          5 INNER ITERATIONS.
    ------------------------------------------------

 NO OUTPUT CONTROL FOR STRESS PERIOD   38   TIME STEP   19
 
 SOLVING FOR HEAD 
                                                   Max.-Head-Change                         Max.-Flux-Residual
  Residual-Control   Outer-Iter.   Inner-Iter.     Column Row Layer    Maximum-Head-Change  Column Row Layer    Maximum-Flux-Residual          L2-NORM 
          0                 1           2             4    7     1       0.2791420049E-02       4    7    1         0.1463281975E+00      0.3999695275E+00
          0                 2           2             4    7     1      -0.2715292060E-03       4    7    1        -0.1463283025E-01      0.3998579106E-01
          0                 3           1             4    7     1       0.1849013107E-04       4    7    1         0.1024298454E-02      0.2797998898E-02

    ------------------------------------------------
       NWT REQUIRED            3 OUTER ITERATIONS 
       AND A TOTAL OF          5 INNER ITERATIONS.
    ------------------------------------------------

 NO OUTPUT CONTROL FOR STRESS PERIOD   38   TIME STEP   20
 
 SOLVING FOR HEAD 
                                                   Max.-Head-Change                         Max.-Flux-Residual
  Residual-Control   Outer-Iter.   Inner-Iter.     Column Row Layer    Maximum-Head-Change  Column Row Layer    Maximum-Flux-Residual          L2-NORM 
          0                 1           2             4    7     1       0.2767048551E-02       4    7    1         0.1450434415E+00      0.3972482825E+00
          0                 2           2             4    7     1      -0.2691585207E-03       4    7    1        -0.1450435442E-01      0.3971478931E-01
          0                 3           1             4    7     1       0.1832869670E-04       4    7    1         0.1015305160E-02      0.2779062239E-02

    ------------------------------------------------
       NWT REQUIRED            3 OUTER ITERATIONS 
       AND A TOTAL OF          5 INNER ITERATIONS.
    ------------------------------------------------

 NO OUTPUT CONTROL FOR STRESS PERIOD   38   TIME STEP   21
 
 SOLVING FOR HEAD 
                                                   Max.-Head-Change                         Max.-Flux-Residual
  Residual-Control   Outer-Iter.   Inner-Iter.     Column Row Layer    Maximum-Head-Change  Column Row Layer    Maximum-Flux-Residual          L2-NORM 
          0                 1           2             4    7     1       0.2742796302E-02       4    7    1         0.1437650075E+00      0.3945658036E+00
          0                 2           2             4    7     1      -0.2667994348E-03       4    7    1        -0.1437651079E-01      0.3944757993E-01
          0                 3           1             4    7     1       0.1816805141E-04       4    7    1         0.1006356099E-02      0.2760540203E-02

    ------------------------------------------------
       NWT REQUIRED            3 OUTER ITERATIONS 
       AND A TOTAL OF          5 INNER ITERATIONS.
    ------------------------------------------------

 NO OUTPUT CONTROL FOR STRESS PERIOD   38   TIME STEP   22
 
 SOLVING FOR HEAD 
                                                   Max.-Head-Change                         Max.-Flux-Residual
  Residual-Control   Outer-Iter.   Inner-Iter.     Column Row Layer    Maximum-Head-Change  Column Row Layer    Maximum-Flux-Residual          L2-NORM 
          0                 1           2             4    7     1       0.2719204664E-02       4    7    1         0.1425223505E+00      0.3919387780E+00
          0                 2           2             4    7     1      -0.2645046082E-03       4    7    1        -0.1425224486E-01      0.3918577331E-01
          0                 3           1             4    7     1       0.1801178196E-04       4    7    1         0.9976574711E-03      0.2742344353E-02

    ------------------------------------------------
       NWT REQUIRED            3 OUTER ITERATIONS 
       AND A TOTAL OF          5 INNER ITERATIONS.
    ------------------------------------------------

 NO OUTPUT CONTROL FOR STRESS PERIOD   38   TIME STEP   23
 
 SOLVING FOR HEAD 
                                                   Max.-Head-Change                         Max.-Flux-Residual
  Residual-Control   Outer-Iter.   Inner-Iter.     Column Row Layer    Maximum-Head-Change  Column Row Layer    Maximum-Flux-Residual          L2-NORM 
          0                 1           2             4    7     1       0.2695714372E-02       4    7    1         0.1412843509E+00      0.3893584416E+00
          0                 2           2             4    7     1      -0.2622196403E-03       4    7    1        -0.1412844470E-01      0.3892851672E-01
          0                 3           1             4    7     1       0.1785618420E-04       4    7    1         0.9889914591E-03      0.2724172056E-02

    ------------------------------------------------
       NWT REQUIRED            3 OUTER ITERATIONS 
       AND A TOTAL OF          5 INNER ITERATIONS.
    ------------------------------------------------

 NO OUTPUT CONTROL FOR STRESS PERIOD   38   TIME STEP   24
 
 SOLVING FOR HEAD 
                                                   Max.-Head-Change                         Max.-Flux-Residual
  Residual-Control   Outer-Iter.   Inner-Iter.     Column Row Layer    Maximum-Head-Change  Column Row Layer    Maximum-Flux-Residual          L2-NORM 
          0                 1           2             4    7     1       0.2672604251E-02       4    7    1         0.1400664033E+00      0.3868291884E+00
          0                 2           2             4    7     1      -0.2599716526E-03       4    7    1        -0.1400664974E-01      0.3867624836E-01
          0                 3           1             4    7     1       0.1770310487E-04       4    7    1         0.9804658112E-03      0.2706780492E-02

    ------------------------------------------------
       NWT REQUIRED            3 OUTER ITERATIONS 
       AND A TOTAL OF          5 INNER ITERATIONS.
    ------------------------------------------------

 NO OUTPUT CONTROL FOR STRESS PERIOD   38   TIME STEP   25
 
 SOLVING FOR HEAD 
                                                   Max.-Head-Change                         Max.-Flux-Residual
  Residual-Control   Outer-Iter.   Inner-Iter.     Column Row Layer    Maximum-Head-Change  Column Row Layer    Maximum-Flux-Residual          L2-NORM 
          0                 1           2             4    7     1       0.2649857081E-02       4    7    1         0.1388681673E+00      0.3843435818E+00
          0                 2           2             4    7     1      -0.2577589709E-03       4    7    1        -0.1388682595E-01      0.3842844459E-01
          0                 3           1             4    7     1       0.1755242967E-04       4    7    1         0.9720781654E-03      0.2689481187E-02

    ------------------------------------------------
       NWT REQUIRED            3 OUTER ITERATIONS 
       AND A TOTAL OF          5 INNER ITERATIONS.
    ------------------------------------------------

 NO OUTPUT CONTROL FOR STRESS PERIOD   38   TIME STEP   26
 
 SOLVING FOR HEAD 
                                                   Max.-Head-Change                         Max.-Flux-Residual
  Residual-Control   Outer-Iter.   Inner-Iter.     Column Row Layer    Maximum-Head-Change  Column Row Layer    Maximum-Flux-Residual          L2-NORM 
          0                 1           2             4    7     1       0.2627468022E-02       4    7    1         0.1376887497E+00      0.3818971436E+00
          0                 2           2             4    7     1      -0.2555811225E-03       4    7    1        -0.1376888399E-01      0.3818416912E-01
          0                 3           1             4    7     1       0.1740412570E-04       4    7    1         0.9638221873E-03      0.2672357878E-02

    ------------------------------------------------
       NWT REQUIRED            3 OUTER ITERATIONS 
       AND A TOTAL OF          5 INNER ITERATIONS.
    ------------------------------------------------

 NO OUTPUT CONTROL FOR STRESS PERIOD   38   TIME STEP   27
 
 SOLVING FOR HEAD 
                                                   Max.-Head-Change                         Max.-Flux-Residual
  Residual-Control   Outer-Iter.   Inner-Iter.     Column Row Layer    Maximum-Head-Change  Column Row Layer    Maximum-Flux-Residual          L2-NORM 
          0                 1           2             4    7     1       0.2605162514E-02       4    7    1         0.1365131023E+00      0.3794887527E+00
          0                 2           2             4    7     1      -0.2534114024E-03       4    7    1        -0.1365131907E-01      0.3794382177E-01
          0                 3           1             4    7     1       0.1725637626E-04       4    7    1         0.9555926649E-03      0.2655579828E-02

    ------------------------------------------------
       NWT REQUIRED            3 OUTER ITERATIONS 
       AND A TOTAL OF          5 INNER ITERATIONS.
    ------------------------------------------------

 NO OUTPUT CONTROL FOR STRESS PERIOD   38   TIME STEP   28
 
 SOLVING FOR HEAD 
                                                   Max.-Head-Change                         Max.-Flux-Residual
  Residual-Control   Outer-Iter.   Inner-Iter.     Column Row Layer    Maximum-Head-Change  Column Row Layer    Maximum-Flux-Residual          L2-NORM 
          0                 1           2             4    7     1       0.2583482204E-02       4    7    1         0.1353713822E+00      0.3771219948E+00
          0                 2           2             4    7     1      -0.2513024968E-03       4    7    1        -0.1353714688E-01      0.3770761924E-01
          0                 3           1             4    7     1       0.1711276742E-04       4    7    1         0.9476005985E-03      0.2639180977E-02

    ------------------------------------------------
       NWT REQUIRED            3 OUTER ITERATIONS 
       AND A TOTAL OF          5 INNER ITERATIONS.
    ------------------------------------------------

 NO OUTPUT CONTROL FOR STRESS PERIOD   38   TIME STEP   29
 
 SOLVING FOR HEAD 
                                                   Max.-Head-Change                         Max.-Flux-Residual
  Residual-Control   Outer-Iter.   Inner-Iter.     Column Row Layer    Maximum-Head-Change  Column Row Layer    Maximum-Flux-Residual          L2-NORM 
          0                 1           2             4    7     1       0.2561866960E-02       4    7    1         0.1342324824E+00      0.3747900349E+00
          0                 2           2             4    7     1      -0.2491999200E-03       4    7    1        -0.1342325670E-01      0.3747487585E-01
          0                 3           1             4    7     1       0.1696959003E-04       4    7    1         0.9396282953E-03      0.2622928949E-02

    ------------------------------------------------
       NWT REQUIRED            3 OUTER ITERATIONS 
       AND A TOTAL OF          5 INNER ITERATIONS.
    ------------------------------------------------

 NO OUTPUT CONTROL FOR STRESS PERIOD   38   TIME STEP   30



 STREAM LISTING     PERIOD     38   STEP       30

 LAYER ROW COL. STREAM  RCH.  FLOW INTO     FLOW TO   FLOW OUT OF   OVRLND.     DIRECT     STREAM       STREAM     STREAM     STREAM   STREAMBED  STREAMBED
                SEG.NO.  NO.  STRM. RCH.    AQUIFER    STRM. RCH.    RUNOFF     PRECIP       ET          HEAD       DEPTH      WIDTH   CONDCTNC.   GRADIENT

   1    1    1     1     1    1.4250E+01  1.8168E-01   1.4068E+01  0.000E+00  0.000E+00  0.000E+00  1.09404E+03  9.953E-01  1.011E+01  4.547E-02  1.332E+00
   1    2    2     1     2    1.4068E+01  2.7999E-01   1.3788E+01  0.000E+00  0.000E+00  0.000E+00  1.08905E+03  9.906E-01  1.002E+01  7.016E-02  1.330E+00
   1    3    3     1     3    1.3788E+01  2.3744E-01   1.3550E+01  0.000E+00  0.000E+00  0.000E+00  1.08340E+03  9.852E-01  9.930E+00  5.958E-02  1.328E+00
   1    3    4     1     4    1.3550E+01  2.1755E-01   1.3333E+01  0.000E+00  0.000E+00  0.000E+00  1.07839E+03  9.805E-01  9.847E+00  5.465E-02  1.327E+00
   1    4    5     2     1    1.1333E+01  2.9214E-01   1.1041E+01  0.000E+00  0.000E+00  0.000E+00  1.07268E+03  7.454E-01  1.200E+01  7.800E-02  1.248E+00
   1    5    6     2     2    1.1041E+01  2.2410E-01   1.0817E+01  0.000E+00  0.000E+00  0.000E+00  1.06724E+03  7.350E-01  1.200E+01  6.000E-02  1.245E+00
   1    6    6     2     3    1.0817E+01  2.2356E-01   1.0593E+01  0.000E+00  0.000E+00  0.000E+00  1.06252E+03  7.259E-01  1.200E+01  6.000E-02  1.242E+00
   1    7    6     2     4    1.0593E+01  2.2301E-01   1.0370E+01  0.000E+00  0.000E+00  0.000E+00  1.05779E+03  7.168E-01  1.200E+01  6.000E-02  1.239E+00
   1    8    6     2     5    1.0370E+01  2.2246E-01   1.0148E+01  0.000E+00  0.000E+00  0.000E+00  1.05307E+03  7.076E-01  1.200E+01  6.000E-02  1.236E+00
   1    3    5     3     1    2.0000E+00  2.8252E-01   1.7175E+00  0.000E+00  0.000E+00  0.000E+00  1.07555E+03  1.909E+00  9.636E+00  7.227E-02  1.955E+00
   1    3    6     3     2    1.7175E+00  2.4905E-01   1.4684E+00  0.000E+00  0.000E+00  0.000E+00  1.07264E+03  1.727E+00  8.909E+00  6.682E-02  1.864E+00
   1    3    7     3     3    1.4684E+00  1.9718E-01   1.2712E+00  0.000E+00  0.000E+00  0.000E+00  1.06987E+03  1.555E+00  8.218E+00  5.547E-02  1.777E+00
   1    4    8     3     4    1.2712E+00  2.2567E-01   1.0456E+00  0.000E+00  0.000E+00  0.000E+00  1.06682E+03  1.364E+00  7.455E+00  6.709E-02  1.682E+00
   1    5    8     3     5    1.0456E+00  1.5790E-01   8.8768E-01  0.000E+00  0.000E+00  0.000E+00  1.06362E+03  1.164E+00  6.655E+00  4.991E-02  1.582E+00
   1    6    8     3     6    8.8768E-01  5.5980E-02   8.3170E-01  0.000E+00  0.000E+00  0.000E+00  1.06158E+03  1.036E+00  6.145E+00  1.844E-02  1.518E+00
   1    5   10     4     1    1.0000E+01  9.0919E-02   9.9091E+00  0.000E+00  0.000E+00  0.000E+00  1.07836E+03  6.368E-01  1.000E+01  2.500E-02  1.212E+00
   1    5    9     4     2    9.9091E+00  1.8158E-01   9.7275E+00  0.000E+00  0.000E+00  0.000E+00  1.07154E+03  6.315E-01  1.000E+01  5.000E-02  1.211E+00
   1    6    8     4     3    9.7275E+00  1.2689E-01   9.6006E+00  0.000E+00  0.000E+00  0.000E+00  1.06381E+03  6.256E-01  1.000E+01  3.500E-02  1.209E+00
   1    6    8     5     1    1.0432E+01  2.2686E-01   1.0205E+01  0.000E+00  0.000E+00  0.000E+00  1.05868E+03  6.790E-01  1.542E+01  6.166E-02  1.226E+00
   1    7    7     5     2    1.0205E+01  2.7894E-01   9.9265E+00  0.000E+00  0.000E+00  0.000E+00  1.05417E+03  6.732E-01  1.519E+01  7.594E-02  1.224E+00
   1    8    7     5     3    9.9265E+00  1.9221E-01   9.7343E+00  0.000E+00  0.000E+00  0.000E+00  1.04992E+03  6.676E-01  1.497E+01  5.241E-02  1.223E+00
   1    8    6     5     4    9.7343E+00  1.3577E-01   9.5985E+00  0.000E+00  0.000E+00  0.000E+00  1.04691E+03  6.637E-01  1.482E+01  3.706E-02  1.221E+00
   1    9    6     6     1    1.9746E+01  2.4336E-01   1.9503E+01  0.000E+00  0.000E+00  0.000E+00  1.04378E+03  1.056E+00  1.200E+01  6.000E-02  1.352E+00
   1   10    7     6     2    1.9503E+01  2.4289E-01   1.9260E+01  0.000E+00  0.000E+00  0.000E+00  1.03923E+03  1.048E+00  1.200E+01  6.000E-02  1.349E+00
   1   11    7     6     3    1.9260E+01  2.4241E-01   1.9018E+01  0.000E+00  0.000E+00  0.000E+00  1.03468E+03  1.040E+00  1.200E+01  6.000E-02  1.347E+00
   1   12    7     6     4    1.9018E+01  2.4194E-01   1.8776E+01  0.000E+00  0.000E+00  0.000E+00  1.03012E+03  1.032E+00  1.200E+01  6.000E-02  1.344E+00
   1   13    7     6     5    1.8776E+01 -2.5381E-02   1.8801E+01  0.000E+00  0.000E+00  0.000E+00  1.02694E+03  1.029E+00  1.200E+01  2.400E-01 -3.525E-02
   1   14    9     7     1    1.5000E+02  1.3419E+00   1.4866E+02  0.000E+00  0.000E+00  0.000E+00  1.03987E+03  2.288E+00  5.529E+01  5.593E-01  7.997E-01
   1   13    8     7     2    1.4866E+02  1.8454E+00   1.4681E+02  0.000E+00  0.000E+00  0.000E+00  1.03478E+03  2.279E+00  5.526E+01  6.148E-01  1.001E+00
   1   13    7     7     3    1.4681E+02  1.4777E+00   1.4534E+02  0.000E+00  0.000E+00  0.000E+00  1.02969E+03  2.270E+00  5.522E+01  5.584E-01  8.820E-01
   1   13    6     8     1    1.6414E+02  8.9452E-01   1.6324E+02  0.000E+00  0.000E+00  0.000E+00  1.02479E+03  2.911E+00  4.220E+01  4.301E-01  6.933E-01
   1   13    5     8     2    1.6324E+02  1.5250E-01   1.6309E+02  0.000E+00  0.000E+00  0.000E+00  1.01853E+03  2.907E+00  4.215E+01  4.296E-01  1.183E-01
   1   13    4     8     3    1.6309E+02 -2.5151E+00   1.6560E+02  0.000E+00  0.000E+00  0.000E+00  1.01229E+03  2.915E+00  4.227E+01  4.307E+00 -1.946E-01
   1   13    3     8     4    1.6560E+02 -3.6790E+00   1.6928E+02  0.000E+00  0.000E+00  0.000E+00  1.00606E+03  2.935E+00  4.256E+01  4.337E+00 -2.827E-01
   1   13    2     8     5    1.6928E+02 -2.5870E+00   1.7187E+02  0.000E+00  0.000E+00  0.000E+00  9.99831E+02  2.956E+00  4.286E+01  4.368E+00 -1.974E-01
   1   13    1     8     6    1.7187E+02 -1.9899E+00   1.7386E+02  0.000E+00  0.000E+00  0.000E+00  9.94846E+02  2.971E+00  4.308E+01  2.634E+00 -2.518E-01
   1    8    6     9     1    0.0000E+00  0.0000E+00   0.0000E+00  0.000E+00  0.000E+00  0.000E+00  1.07875E+03  0.000E+00  4.000E+00  0.000E+00  1.000E+00
   1    8    5     9     2    0.0000E+00  0.0000E+00   0.0000E+00  0.000E+00  0.000E+00  0.000E+00  1.07825E+03  0.000E+00  4.000E+00  0.000E+00  1.000E+00





UNSATURATED ZONE PACKAGE VOLUMETRIC BUDGET FOR  TIME STEP    30 STRESS PERIOD   38
  ------------------------------------------------------------------------------



     CUMULATIVE VOLUMES      L**3       RATES FOR THIS TIME STEP      L**3/T
     ------------------                 ------------------------

           IN:                                      IN:
           ---                                      ---
        INFILTRATION =  1623213754.7498          INFILTRATION =           4.4075

          OUT:                                     OUT:
          ----                                     ----
              UZF ET =  1495223219.0059                UZF ET =           0.7250
        UZF RECHARGE =     1188452.4670          UZF RECHARGE =       0.0000E+00

            IN - OUT =   126802083.2769              IN - OUT =           3.6825

          STORAGE:                                 STORAGE:
          --------                                 --------
      STORAGE CHANGE =   126803041.8180        STORAGE CHANGE =           3.6825

 PERCENT DISCREPANCY IS DIFFERENCE BETWEEN IN-OUT MINUS CHANGE IN STORAGE
 DIVIDED BY THE AVERAGE OF IN AND OUT TIMES 100

 PERCENT DISCREPANCY =          -0.00     PERCENT DISCREPANCY =           0.00






1
  VOLUMETRIC BUDGET FOR ENTIRE MODEL AT END OF TIME STEP   30, STRESS PERIOD  38
  ------------------------------------------------------------------------------

     CUMULATIVE VOLUMES      L**3       RATES FOR THIS TIME STEP      L**3/T
     ------------------                 ------------------------

           IN:                                      IN:
           ---                                      ---
               AG WELLS  =   219671824.0000                 AG WELLS  =           0.0000
      DIVERSION SEGMENTS =   974557696.0000        DIVERSION SEGMENTS =           0.0000
           GW IRRIGATION =           0.0000             GW IRRIGATION =           0.0000
           SW IRRIGATION =           0.0000             SW IRRIGATION =           0.0000
        SYSTEM LOSSES GW =           0.0000          SYSTEM LOSSES GW =           0.0000
        SYSTEM LOSSES SW =           0.0000          SYSTEM LOSSES SW =           0.0000

                TOTAL IN =  1194229504.0000                  TOTAL IN =           0.0000

          OUT:                                     OUT:
          ----                                     ----
               AG WELLS  =           0.0000                 AG WELLS  =           0.0000
      DIVERSION SEGMENTS =           0.0000        DIVERSION SEGMENTS =           0.0000
           GW IRRIGATION =   219671824.0000             GW IRRIGATION =           0.0000
           SW IRRIGATION =   974577408.0000             SW IRRIGATION =           0.0000
        SYSTEM LOSSES GW =           0.0000          SYSTEM LOSSES GW =           0.0000
        SYSTEM LOSSES SW =           0.0000          SYSTEM LOSSES SW =           0.0000

               TOTAL OUT =  1194249216.0000                 TOTAL OUT =           0.0000

                IN - OUT =      -19712.0000                  IN - OUT =           0.0000

     PERCENT DISCREPANCY =          -0.00         PERCENT DISCREPANCY =           0.00



1
  VOLUMETRIC BUDGET FOR ENTIRE MODEL AT END OF TIME STEP   30, STRESS PERIOD  38
  ------------------------------------------------------------------------------

     CUMULATIVE VOLUMES      L**3       RATES FOR THIS TIME STEP      L**3/T
     ------------------                 ------------------------

           IN:                                      IN:
           ---                                      ---
             STORAGE     =   376321760.0000               STORAGE     =           1.0838
       CONSTANT HEAD     =           0.0000         CONSTANT HEAD     =           0.0000
     HEAD DEP BOUNDS     =    27841360.0000       HEAD DEP BOUNDS     =           0.2862
      STREAM LEAKAGE     =  1159465728.0000        STREAM LEAKAGE     =          11.1859
        UZF RECHARGE     =     1188452.5000          UZF RECHARGE     =           0.0000
               GW ET     =           0.0000                 GW ET     =           0.0000
     SURFACE LEAKAGE     =           0.0000       SURFACE LEAKAGE     =           0.0000
           AG WELLS      =           0.0000             AG WELLS      =           0.0000

                TOTAL IN =  1564817280.0000                  TOTAL IN =          12.5559

          OUT:                                     OUT:
          ----                                     ----
             STORAGE     =   259303024.0000               STORAGE     =           1.4709
       CONSTANT HEAD     =           0.0000         CONSTANT HEAD     =           0.0000
     HEAD DEP BOUNDS     =    28304832.0000       HEAD DEP BOUNDS     =           0.2888
      STREAM LEAKAGE     =  1054275840.0000        STREAM LEAKAGE     =          10.7963
        UZF RECHARGE     =           0.0000          UZF RECHARGE     =           0.0000
               GW ET     =     3265349.0000                 GW ET     =           0.0000
     SURFACE LEAKAGE     =           0.0000       SURFACE LEAKAGE     =           0.0000
           AG WELLS      =   219671824.0000             AG WELLS      =           0.0000

               TOTAL OUT =  1564820864.0000                 TOTAL OUT =          12.5560

                IN - OUT =       -3584.0000                  IN - OUT =      -1.0586E-04

     PERCENT DISCREPANCY =          -0.00         PERCENT DISCREPANCY =          -0.00






         TIME SUMMARY AT END OF TIME STEP   30 IN STRESS PERIOD   38
                    SECONDS     MINUTES      HOURS       DAYS        YEARS
                    -----------------------------------------------------------
   TIME STEP LENGTH  87667.      1461.1      24.352      1.0147     2.77799E-03
 STRESS PERIOD TIME 2.63000E+06  43833.      730.56      30.440     8.33397E-02
         TOTAL TIME 9.73959E+07 1.62326E+06  27054.      1127.3      3.0863    
1
1
                            STRESS PERIOD NO.   39, LENGTH =   2630000.    
                            -----------------------------------------------

                              NUMBER OF TIME STEPS =    30

                               MULTIPLIER FOR DELT =     1.000

                            INITIAL TIME STEP SIZE =   87666.66    

 REUSING NON-PARAMETER GHB CELLS FROM LAST STRESS PERIOD

      2 GHB CELLS

 REUSING STREAM SEGMENT DATA FROM LAST STRESS PERIOD



            AREAL INFILTRATION RATE
 READING ON UNIT   19 WITH FORMAT: (10F4.0)            

            1           2           3           4           5           6           7           8           9          10
 ........................................................................................................................
   1   1.2000E-09   0.000       0.000       0.000       0.000       0.000       0.000       0.000       0.000       0.000    
   2   2.1000E-09  2.0000E-09  8.0000E-10  8.5000E-09   0.000       0.000       0.000       0.000       0.000       0.000    
   3   5.0000E-10  1.1000E-09  8.8000E-09  5.5000E-09   0.000       0.000       0.000       0.000       0.000       0.000    
   4   8.5000E-09  1.1000E-09  1.1000E-09  1.1000E-09  2.0000E-09   0.000       0.000       0.000       0.000       0.000    
   5   8.5000E-09  1.1000E-09  1.1000E-09  1.1000E-09  1.1000E-09   0.000       0.000       0.000       0.000       0.000    
   6   8.5000E-09  5.2000E-09  2.1000E-09  1.1000E-09  1.5000E-09   0.000       0.000       0.000       0.000       0.000    
   7   8.5000E-09  5.2000E-09  2.1000E-09  1.2000E-09  2.0000E-09   0.000       0.000       0.000       0.000       0.000    
   8   5.0000E-10  5.2000E-09  2.1000E-09  1.2000E-09  5.0000E-09   0.000       0.000       0.000       0.000       0.000    
   9   5.0000E-10  5.2000E-09  2.1000E-09  1.2000E-09  5.0000E-09   0.000       0.000       0.000       0.000       0.000    
  10   5.0000E-10  5.2000E-09  2.1000E-09  1.2000E-09  5.8000E-09   0.000       0.000       0.000       0.000       0.000    
  11   1.0000E-10  1.1000E-09  1.1000E-09  1.2000E-09  5.0000E-09   0.000       0.000       0.000       0.000       0.000    
  12   1.1000E-09  1.1000E-09  1.1000E-09  1.1000E-09  2.0000E-09   0.000       0.000       0.000       0.000       0.000    
  13   1.1000E-09  2.2000E-09  2.2000E-09  2.1000E-09  1.0000E-09   0.000       0.000       0.000       0.000       0.000    
  14   2.0000E-10  5.5000E-09  5.5000E-09  5.2000E-09  1.0000E-09   0.000       0.000       0.000       0.000       0.000    
  15    0.000      8.8000E-09  8.8000E-09   0.000       0.000       0.000       0.000       0.000       0.000       0.000    

                  ET RATE =  5.000000E-10

 USING ET EXTINCTION DEPTH FROM PREVIOUS STRESS PERIOD. CURRENT PERIOD IS:      39

 USING EXTINCTION WATER CONTENT FROM PREVIOUS STRESS PERIOD. CURRENT PERIOD IS:      39

 USING AIR ENTRY PRESSURE FROM PREVIOUS STRESS PERIOD. CURRENT PERIOD IS:      39

 USING ROOT PRESSURE HEAD FROM PREVIOUS STRESS PERIOD. CURRENT PERIOD IS:      39

 USING ROOT ACTIVITY FROM PREVIOUS STRESS PERIOD. CURRENT PERIOD IS:      39

 PROCESSING AG STRESS PERIOD DATA

 READING AG STRESS PERIOD DATA

 READING IRRIGATION SEGMENT

 READING IRRIGATION WELL

 READING SUPPLEMENTAL WELL

 END PROCESSING AG STRESS PERIOD DATA OPTIONS
 
 SOLVING FOR HEAD 
                                                   Max.-Head-Change                         Max.-Flux-Residual
  Residual-Control   Outer-Iter.   Inner-Iter.     Column Row Layer    Maximum-Head-Change  Column Row Layer    Maximum-Flux-Residual          L2-NORM 
          0                 1           2             4    7     1       0.2540588211E-02       4    7    1         0.1331117541E+00      0.3724918245E+00
          0                 2           2             4    7     1      -0.2471300760E-03       4    7    1        -0.1331118372E-01      0.3724537845E-01
          0                 3           1             4    7     1       0.1682864115E-04       4    7    1         0.9317832023E-03      0.2606852108E-02

    ------------------------------------------------
       NWT REQUIRED            3 OUTER ITERATIONS 
       AND A TOTAL OF          5 INNER ITERATIONS.
    ------------------------------------------------

 NO OUTPUT CONTROL FOR STRESS PERIOD   39   TIME STEP    1
 
 SOLVING FOR HEAD 
                                                   Max.-Head-Change                         Max.-Flux-Residual
  Residual-Control   Outer-Iter.   Inner-Iter.     Column Row Layer    Maximum-Head-Change  Column Row Layer    Maximum-Flux-Residual          L2-NORM 
          0                 1           2             4    7     1       0.2519641170E-02       4    7    1         0.1320084725E+00      0.3702314555E+00
          0                 2           2             4    7     1      -0.2450924976E-03       4    7    1        -0.1320085540E-01      0.3701967467E-01
          0                 3           1             4    7     1       0.1668988979E-04       4    7    1         0.9240602044E-03      0.2591053215E-02

    ------------------------------------------------
       NWT REQUIRED            3 OUTER ITERATIONS 
       AND A TOTAL OF          5 INNER ITERATIONS.
    ------------------------------------------------

 NO OUTPUT CONTROL FOR STRESS PERIOD   39   TIME STEP    2
 
 SOLVING FOR HEAD 
                                                   Max.-Head-Change                         Max.-Flux-Residual
  Residual-Control   Outer-Iter.   Inner-Iter.     Column Row Layer    Maximum-Head-Change  Column Row Layer    Maximum-Flux-Residual          L2-NORM 
          0                 1           2             4    7     1       0.2499035650E-02       4    7    1         0.1309223897E+00      0.3636085825E+00
          0                 2           2             4    7     1      -0.2430881396E-03       4    7    1        -0.1309224693E-01      0.3635885131E-01
          0                 3           1             4    7     1       0.1655340008E-04       4    7    1         0.9164576036E-03      0.2544919139E-02

    ------------------------------------------------
       NWT REQUIRED            3 OUTER ITERATIONS 
       AND A TOTAL OF          5 INNER ITERATIONS.
    ------------------------------------------------

 NO OUTPUT CONTROL FOR STRESS PERIOD   39   TIME STEP    3
 
 SOLVING FOR HEAD 
                                                   Max.-Head-Change                         Max.-Flux-Residual
  Residual-Control   Outer-Iter.   Inner-Iter.     Column Row Layer    Maximum-Head-Change  Column Row Layer    Maximum-Flux-Residual          L2-NORM 
          0                 1           2             4    7     1       0.2478483620E-02       4    7    1         0.1298392167E+00      0.3609648977E+00
          0                 2           2             4    7     1      -0.2410889852E-03       4    7    1        -0.1298392947E-01      0.3608854048E-01
          0                 3           1             4    7     1       0.1641726538E-04       4    7    1         0.9088753773E-03      0.2525544110E-02

    ------------------------------------------------
       NWT REQUIRED            3 OUTER ITERATIONS 
       AND A TOTAL OF          5 INNER ITERATIONS.
    ------------------------------------------------

 NO OUTPUT CONTROL FOR STRESS PERIOD   39   TIME STEP    4
 
 SOLVING FOR HEAD 
                                                   Max.-Head-Change                         Max.-Flux-Residual
  Residual-Control   Outer-Iter.   Inner-Iter.     Column Row Layer    Maximum-Head-Change  Column Row Layer    Maximum-Flux-Residual          L2-NORM 
          0                 1           2             4    7     1       0.2458538332E-02       4    7    1         0.1287884130E+00      0.3586113305E+00
          0                 2           2             4    7     1      -0.2391488502E-03       4    7    1        -0.1287884895E-01      0.3585454881E-01
          0                 3           1             4    7     1       0.1628514915E-04       4    7    1         0.9015197379E-03      0.2509185807E-02

    ------------------------------------------------
       NWT REQUIRED            3 OUTER ITERATIONS 
       AND A TOTAL OF          5 INNER ITERATIONS.
    ------------------------------------------------

 NO OUTPUT CONTROL FOR STRESS PERIOD   39   TIME STEP    5
 
 SOLVING FOR HEAD 
                                                   Max.-Head-Change                         Max.-Flux-Residual
  Residual-Control   Outer-Iter.   Inner-Iter.     Column Row Layer    Maximum-Head-Change  Column Row Layer    Maximum-Flux-Residual          L2-NORM 
          0                 1           2             4    7     1       0.2438637685E-02       4    7    1         0.1277394720E+00      0.3563341920E+00
          0                 2           2             4    7     1      -0.2372130576E-03       4    7    1        -0.1277395469E-01      0.3562797518E-01
          0                 3           1             4    7     1       0.1615332876E-04       4    7    1         0.8941771403E-03      0.2493479416E-02

    ------------------------------------------------
       NWT REQUIRED            3 OUTER ITERATIONS 
       AND A TOTAL OF          5 INNER ITERATIONS.
    ------------------------------------------------

 NO OUTPUT CONTROL FOR STRESS PERIOD   39   TIME STEP    6
 
 SOLVING FOR HEAD 
                                                   Max.-Head-Change                         Max.-Flux-Residual
  Residual-Control   Outer-Iter.   Inner-Iter.     Column Row Layer    Maximum-Head-Change  Column Row Layer    Maximum-Flux-Residual          L2-NORM 
          0                 1           2             4    7     1       0.2419054745E-02       4    7    1         0.1267076439E+00      0.3541133247E+00
          0                 2           2             4    7     1      -0.2353081695E-03       4    7    1        -0.1267077174E-01      0.3540675256E-01
          0                 3           1             4    7     1       0.1602361311E-04       4    7    1         0.8869543262E-03      0.2477995700E-02

    ------------------------------------------------
       NWT REQUIRED            3 OUTER ITERATIONS 
       AND A TOTAL OF          5 INNER ITERATIONS.
    ------------------------------------------------

 NO OUTPUT CONTROL FOR STRESS PERIOD   39   TIME STEP    7
 
 SOLVING FOR HEAD 
                                                   Max.-Head-Change                         Max.-Flux-Residual
  Residual-Control   Outer-Iter.   Inner-Iter.     Column Row Layer    Maximum-Head-Change  Column Row Layer    Maximum-Flux-Residual          L2-NORM 
          0                 1           2             4    7     1       0.2399789136E-02       4    7    1         0.1256922884E+00      0.3519754377E+00
          0                 2           2             4    7     1      -0.2334341487E-03       4    7    1        -0.1256923603E-01      0.3519388017E-01
          0                 3           1             4    7     1       0.1589599936E-04       4    7    1         0.8798468266E-03      0.2463050594E-02

    ------------------------------------------------
       NWT REQUIRED            3 OUTER ITERATIONS 
       AND A TOTAL OF          5 INNER ITERATIONS.
    ------------------------------------------------

 NO OUTPUT CONTROL FOR STRESS PERIOD   39   TIME STEP    8
 
 SOLVING FOR HEAD 
                                                   Max.-Head-Change                         Max.-Flux-Residual
  Residual-Control   Outer-Iter.   Inner-Iter.     Column Row Layer    Maximum-Head-Change  Column Row Layer    Maximum-Flux-Residual          L2-NORM 
          0                 1           2             4    7     1       0.2380827643E-02       4    7    1         0.1246933862E+00      0.3498871640E+00
          0                 2           2             4    7     1      -0.2315897103E-03       4    7    1        -0.1246934567E-01      0.3498563808E-01
          0                 3           1             4    7     1       0.1577040017E-04       4    7    1         0.8728545013E-03      0.2448681950E-02

    ------------------------------------------------
       NWT REQUIRED            3 OUTER ITERATIONS 
       AND A TOTAL OF          5 INNER ITERATIONS.
    ------------------------------------------------

 NO OUTPUT CONTROL FOR STRESS PERIOD   39   TIME STEP    9
 
 SOLVING FOR HEAD 
                                                   Max.-Head-Change                         Max.-Flux-Residual
  Residual-Control   Outer-Iter.   Inner-Iter.     Column Row Layer    Maximum-Head-Change  Column Row Layer    Maximum-Flux-Residual          L2-NORM 
          0                 1           2             4    7     1       0.2362156586E-02       4    7    1         0.1237102521E+00      0.3478371782E+00
          0                 2           2             4    7     1      -0.2297735039E-03       4    7    1        -0.1237103213E-01      0.3478167968E-01
          0                 3           1             4    7     1       0.1564670383E-04       4    7    1         0.8659725445E-03      0.2433706410E-02

    ------------------------------------------------
       NWT REQUIRED            3 OUTER ITERATIONS 
       AND A TOTAL OF          5 INNER ITERATIONS.
    ------------------------------------------------

 NO OUTPUT CONTROL FOR STRESS PERIOD   39   TIME STEP   10
 
 SOLVING FOR HEAD 
                                                   Max.-Head-Change                         Max.-Flux-Residual
  Residual-Control   Outer-Iter.   Inner-Iter.     Column Row Layer    Maximum-Head-Change  Column Row Layer    Maximum-Flux-Residual          L2-NORM 
          0                 1           2             4    7     1       0.2343773062E-02       4    7    1         0.1227421766E+00      0.3458427812E+00
          0                 2           2             4    7     1      -0.2279855813E-03       4    7    1        -0.1227422445E-01      0.3459610203E-01
          0                 3           1             4    7     1       0.1552497211E-04       4    7    1         0.8591960127E-03      0.2421504870E-02

    ------------------------------------------------
       NWT REQUIRED            3 OUTER ITERATIONS 
       AND A TOTAL OF          5 INNER ITERATIONS.
    ------------------------------------------------

 NO OUTPUT CONTROL FOR STRESS PERIOD   39   TIME STEP   11
 
 SOLVING FOR HEAD 
                                                   Max.-Head-Change                         Max.-Flux-Residual
  Residual-Control   Outer-Iter.   Inner-Iter.     Column Row Layer    Maximum-Head-Change  Column Row Layer    Maximum-Flux-Residual          L2-NORM 
          0                 1           2             4    7     1       0.2325400507E-02       4    7    1         0.1217741963E+00      0.3438696632E+00
          0                 2           2             4    7     1      -0.2261981554E-03       4    7    1        -0.1217742628E-01      0.3438534109E-01
          0                 3           1             4    7     1       0.1540325507E-04       4    7    1         0.8524201298E-03      0.2406853412E-02

    ------------------------------------------------
       NWT REQUIRED            3 OUTER ITERATIONS 
       AND A TOTAL OF          5 INNER ITERATIONS.
    ------------------------------------------------

 NO OUTPUT CONTROL FOR STRESS PERIOD   39   TIME STEP   12
 
 SOLVING FOR HEAD 
                                                   Max.-Head-Change                         Max.-Flux-Residual
  Residual-Control   Outer-Iter.   Inner-Iter.     Column Row Layer    Maximum-Head-Change  Column Row Layer    Maximum-Flux-Residual          L2-NORM 
          0                 1           2             4    7     1       0.2307313209E-02       4    7    1         0.1208216126E+00      0.3419360683E+00
          0                 2           2             4    7     1      -0.2244387529E-03       4    7    1        -0.1208216778E-01      0.3419232046E-01
          0                 3           1             4    7     1       0.1528344609E-04       4    7    1         0.8457520403E-03      0.2393349123E-02

    ------------------------------------------------
       NWT REQUIRED            3 OUTER ITERATIONS 
       AND A TOTAL OF          5 INNER ITERATIONS.
    ------------------------------------------------

 NO OUTPUT CONTROL FOR STRESS PERIOD   39   TIME STEP   13
 
 SOLVING FOR HEAD 
                                                   Max.-Head-Change                         Max.-Flux-Residual
  Residual-Control   Outer-Iter.   Inner-Iter.     Column Row Layer    Maximum-Head-Change  Column Row Layer    Maximum-Flux-Residual          L2-NORM 
          0                 1           2             4    7     1       0.2289779002E-02       4    7    1         0.1198986033E+00      0.3400506176E+00
          0                 2           2             4    7     1      -0.2227331509E-03       4    7    1        -0.1198986673E-01      0.3400444266E-01
          0                 3           1             4    7     1       0.1516730081E-04       4    7    1         0.8392909663E-03      0.2380640903E-02

    ------------------------------------------------
       NWT REQUIRED            3 OUTER ITERATIONS 
       AND A TOTAL OF          5 INNER ITERATIONS.
    ------------------------------------------------

 NO OUTPUT CONTROL FOR STRESS PERIOD   39   TIME STEP   14
 
 SOLVING FOR HEAD 
                                                   Max.-Head-Change                         Max.-Flux-Residual
  Residual-Control   Outer-Iter.   Inner-Iter.     Column Row Layer    Maximum-Head-Change  Column Row Layer    Maximum-Flux-Residual          L2-NORM 
          0                 1           2             4    7     1       0.2272229580E-02       4    7    1         0.1189746735E+00      0.3381775799E+00
          0                 2           2             4    7     1      -0.2210260684E-03       4    7    1        -0.1189747360E-01      0.3381696553E-01
          0                 3           1             4    7     1       0.1505105519E-04       4    7    1         0.8328234471E-03      0.2367117500E-02

    ------------------------------------------------
       NWT REQUIRED            3 OUTER ITERATIONS 
       AND A TOTAL OF          5 INNER ITERATIONS.
    ------------------------------------------------

 NO OUTPUT CONTROL FOR STRESS PERIOD   39   TIME STEP   15
 
 SOLVING FOR HEAD 
                                                   Max.-Head-Change                         Max.-Flux-Residual
  Residual-Control   Outer-Iter.   Inner-Iter.     Column Row Layer    Maximum-Head-Change  Column Row Layer    Maximum-Flux-Residual          L2-NORM 
          0                 1           2             4    7     1       0.2254944995E-02       4    7    1         0.1180647536E+00      0.3363449810E+00
          0                 2           2             4    7     1      -0.2193447485E-03       4    7    1        -0.1180648152E-01      0.3363385123E-01
          0                 3           1             4    7     1       0.1493656402E-04       4    7    1         0.8264540129E-03      0.2354310246E-02

    ------------------------------------------------
       NWT REQUIRED            3 OUTER ITERATIONS 
       AND A TOTAL OF          5 INNER ITERATIONS.
    ------------------------------------------------

 NO OUTPUT CONTROL FOR STRESS PERIOD   39   TIME STEP   16
 
 SOLVING FOR HEAD 
                                                   Max.-Head-Change                         Max.-Flux-Residual
  Residual-Control   Outer-Iter.   Inner-Iter.     Column Row Layer    Maximum-Head-Change  Column Row Layer    Maximum-Flux-Residual          L2-NORM 
          0                 1           2             4    7     1       0.2237652673E-02       4    7    1         0.1171537662E+00      0.3345365255E+00
          0                 2           2             4    7     1      -0.2176626751E-03       4    7    1        -0.1171538265E-01      0.3345336943E-01
          0                 3           1             4    7     1       0.1482202055E-04       4    7    1         0.8200770826E-03      0.2341723773E-02

    ------------------------------------------------
       NWT REQUIRED            3 OUTER ITERATIONS 
       AND A TOTAL OF          5 INNER ITERATIONS.
    ------------------------------------------------

 NO OUTPUT CONTROL FOR STRESS PERIOD   39   TIME STEP   17
 
 SOLVING FOR HEAD 
                                                   Max.-Head-Change                         Max.-Flux-Residual
  Residual-Control   Outer-Iter.   Inner-Iter.     Column Row Layer    Maximum-Head-Change  Column Row Layer    Maximum-Flux-Residual          L2-NORM 
          0                 1           2             4    7     1       0.2220895343E-02       4    7    1         0.1162719759E+00      0.3327540933E+00
          0                 2           2             4    7     1      -0.2160326420E-03       4    7    1        -0.1162720350E-01      0.3327500056E-01
          0                 3           1             4    7     1       0.1471102149E-04       4    7    1         0.8139045299E-03      0.2329204451E-02

    ------------------------------------------------
       NWT REQUIRED            3 OUTER ITERATIONS 
       AND A TOTAL OF          5 INNER ITERATIONS.
    ------------------------------------------------

 NO OUTPUT CONTROL FOR STRESS PERIOD   39   TIME STEP   18
 
 SOLVING FOR HEAD 
                                                   Max.-Head-Change                         Max.-Flux-Residual
  Residual-Control   Outer-Iter.   Inner-Iter.     Column Row Layer    Maximum-Head-Change  Column Row Layer    Maximum-Flux-Residual          L2-NORM 
          0                 1           2             4    7     1       0.2204380071E-02       4    7    1         0.1154031251E+00      0.3309937377E+00
          0                 2           2             4    7     1      -0.2144261546E-03       4    7    1        -0.1154031831E-01      0.3309905367E-01
          0                 3           1             4    7     1       0.1460162566E-04       4    7    1         0.8078225633E-03      0.2316898907E-02

    ------------------------------------------------
       NWT REQUIRED            3 OUTER ITERATIONS 
       AND A TOTAL OF          5 INNER ITERATIONS.
    ------------------------------------------------

 NO OUTPUT CONTROL FOR STRESS PERIOD   39   TIME STEP   19
 
 SOLVING FOR HEAD 
                                                   Max.-Head-Change                         Max.-Flux-Residual
  Residual-Control   Outer-Iter.   Inner-Iter.     Column Row Layer    Maximum-Head-Change  Column Row Layer    Maximum-Flux-Residual          L2-NORM 
          0                 1           2             4    7     1       0.2187837638E-02       4    7    1         0.1145320254E+00      0.3292695880E+00
          0                 2           2             4    7     1      -0.2128170254E-03       4    7    1        -0.1145320824E-01      0.3292673479E-01
          0                 3           1             4    7     1       0.1449204972E-04       4    7    1         0.8017248560E-03      0.2304845061E-02

    ------------------------------------------------
       NWT REQUIRED            3 OUTER ITERATIONS 
       AND A TOTAL OF          5 INNER ITERATIONS.
    ------------------------------------------------

 NO OUTPUT CONTROL FOR STRESS PERIOD   39   TIME STEP   20
 
 SOLVING FOR HEAD 
                                                   Max.-Head-Change                         Max.-Flux-Residual
  Residual-Control   Outer-Iter.   Inner-Iter.     Column Row Layer    Maximum-Head-Change  Column Row Layer    Maximum-Flux-Residual          L2-NORM 
          0                 1           2             4    7     1       0.2171542069E-02       4    7    1         0.1136743169E+00      0.3275590174E+00
          0                 2           2             4    7     1      -0.2112319092E-03       4    7    1        -0.1136743728E-01      0.3275571459E-01
          0                 3           1             4    7     1       0.1438410920E-04       4    7    1         0.7957208823E-03      0.2292881166E-02

    ------------------------------------------------
       NWT REQUIRED            3 OUTER ITERATIONS 
       AND A TOTAL OF          5 INNER ITERATIONS.
    ------------------------------------------------

 NO OUTPUT CONTROL FOR STRESS PERIOD   39   TIME STEP   21
 
 SOLVING FOR HEAD 
                                                   Max.-Head-Change                         Max.-Flux-Residual
  Residual-Control   Outer-Iter.   Inner-Iter.     Column Row Layer    Maximum-Head-Change  Column Row Layer    Maximum-Flux-Residual          L2-NORM 
          0                 1           2             4    7     1       0.2155756976E-02       4    7    1         0.1128442073E+00      0.3258703105E+00
          0                 2           2             4    7     1      -0.2096964491E-03       4    7    1        -0.1128442623E-01      0.3258691014E-01
          0                 3           1             4    7     1       0.1427955026E-04       4    7    1         0.7899101238E-03      0.2281068207E-02

    ------------------------------------------------
       NWT REQUIRED            3 OUTER ITERATIONS 
       AND A TOTAL OF          5 INNER ITERATIONS.
    ------------------------------------------------

 NO OUTPUT CONTROL FOR STRESS PERIOD   39   TIME STEP   22
 
 SOLVING FOR HEAD 
                                                   Max.-Head-Change                         Max.-Flux-Residual
  Residual-Control   Outer-Iter.   Inner-Iter.     Column Row Layer    Maximum-Head-Change  Column Row Layer    Maximum-Flux-Residual          L2-NORM 
          0                 1           2             4    7     1       0.2139923836E-02       4    7    1         0.1120109664E+00      0.3241999059E+00
          0                 2           2             4    7     1      -0.2081563152E-03       4    7    1        -0.1120110205E-01      0.3241991764E-01
          0                 3           1             4    7     1       0.1417467323E-04       4    7    1         0.7840774497E-03      0.2269385037E-02

    ------------------------------------------------
       NWT REQUIRED            3 OUTER ITERATIONS 
       AND A TOTAL OF          5 INNER ITERATIONS.
    ------------------------------------------------

 NO OUTPUT CONTROL FOR STRESS PERIOD   39   TIME STEP   23
 
 SOLVING FOR HEAD 
                                                   Max.-Head-Change                         Max.-Flux-Residual
  Residual-Control   Outer-Iter.   Inner-Iter.     Column Row Layer    Maximum-Head-Change  Column Row Layer    Maximum-Flux-Residual          L2-NORM 
          0                 1           2             4    7     1       0.2124321440E-02       4    7    1         0.1111900340E+00      0.3225604451E+00
          0                 2           2             4    7     1      -0.2066386259E-03       4    7    1        -0.1111900871E-01      0.3225596637E-01
          0                 3           1             4    7     1       0.1407132393E-04       4    7    1         0.7783308920E-03      0.2257894161E-02

    ------------------------------------------------
       NWT REQUIRED            3 OUTER ITERATIONS 
       AND A TOTAL OF          5 INNER ITERATIONS.
    ------------------------------------------------

 NO OUTPUT CONTROL FOR STRESS PERIOD   39   TIME STEP   24
 
 SOLVING FOR HEAD 
                                                   Max.-Head-Change                         Max.-Flux-Residual
  Residual-Control   Outer-Iter.   Inner-Iter.     Column Row Layer    Maximum-Head-Change  Column Row Layer    Maximum-Flux-Residual          L2-NORM 
          0                 1           2             4    7     1       0.2108672736E-02       4    7    1         0.1103662657E+00      0.3209290810E+00
          0                 2           2             4    7     1      -0.2051164320E-03       4    7    1        -0.1103663177E-01      0.3209287606E-01
          0                 3           1             4    7     1       0.1396766838E-04       4    7    1         0.7725645050E-03      0.2246486371E-02

    ------------------------------------------------
       NWT REQUIRED            3 OUTER ITERATIONS 
       AND A TOTAL OF          5 INNER ITERATIONS.
    ------------------------------------------------

 NO OUTPUT CONTROL FOR STRESS PERIOD   39   TIME STEP   25
 
 SOLVING FOR HEAD 
                                                   Max.-Head-Change                         Max.-Flux-Residual
  Residual-Control   Outer-Iter.   Inner-Iter.     Column Row Layer    Maximum-Head-Change  Column Row Layer    Maximum-Flux-Residual          L2-NORM 
          0                 1           2             4    7     1       0.2093526538E-02       4    7    1         0.1095696956E+00      0.3193181637E+00
          0                 2           2             4    7     1      -0.2036431186E-03       4    7    1        -0.1095697467E-01      0.3193177854E-01
          0                 3           1             4    7     1       0.1386734092E-04       4    7    1         0.7669885049E-03      0.2235221620E-02

    ------------------------------------------------
       NWT REQUIRED            3 OUTER ITERATIONS 
       AND A TOTAL OF          5 INNER ITERATIONS.
    ------------------------------------------------

 NO OUTPUT CONTROL FOR STRESS PERIOD   39   TIME STEP   26
 
 SOLVING FOR HEAD 
                                                   Max.-Head-Change                         Max.-Flux-Residual
  Residual-Control   Outer-Iter.   Inner-Iter.     Column Row Layer    Maximum-Head-Change  Column Row Layer    Maximum-Flux-Residual          L2-NORM 
          0                 1           2             4    7     1       0.2078591276E-02       4    7    1         0.1087843802E+00      0.3177306202E+00
          0                 2           2             4    7     1      -0.2021903240E-03       4    7    1        -0.1087844306E-01      0.3177305062E-01
          0                 3           1             4    7     1       0.1376841149E-04       4    7    1         0.7614913056E-03      0.2224123282E-02

    ------------------------------------------------
       NWT REQUIRED            3 OUTER ITERATIONS 
       AND A TOTAL OF          5 INNER ITERATIONS.
    ------------------------------------------------

 NO OUTPUT CONTROL FOR STRESS PERIOD   39   TIME STEP   27
 
 SOLVING FOR HEAD 
                                                   Max.-Head-Change                         Max.-Flux-Residual
  Residual-Control   Outer-Iter.   Inner-Iter.     Column Row Layer    Maximum-Head-Change  Column Row Layer    Maximum-Flux-Residual          L2-NORM 
          0                 1           2             4    7     1       0.2063592774E-02       4    7    1         0.1079952018E+00      0.3161603135E+00
          0                 2           2             4    7     1      -0.2007313771E-03       4    7    1        -0.1079952513E-01      0.3161602045E-01
          0                 3           1             4    7     1       0.1366906221E-04       4    7    1         0.7559670303E-03      0.2213118644E-02

    ------------------------------------------------
       NWT REQUIRED            3 OUTER ITERATIONS 
       AND A TOTAL OF          5 INNER ITERATIONS.
    ------------------------------------------------

 NO OUTPUT CONTROL FOR STRESS PERIOD   39   TIME STEP   28
 
 SOLVING FOR HEAD 
                                                   Max.-Head-Change                         Max.-Flux-Residual
  Residual-Control   Outer-Iter.   Inner-Iter.     Column Row Layer    Maximum-Head-Change  Column Row Layer    Maximum-Flux-Residual          L2-NORM 
          0                 1           2             4    7     1       0.2048811526E-02       4    7    1         0.1072175444E+00      0.3146084316E+00
          0                 2           2             4    7     1      -0.1992935636E-03       4    7    1        -0.1072175928E-01      0.3146084169E-01
          0                 3           1             4    7     1       0.1357115260E-04       4    7    1         0.7505234371E-03      0.2202269685E-02

    ------------------------------------------------
       NWT REQUIRED            3 OUTER ITERATIONS 
       AND A TOTAL OF          5 INNER ITERATIONS.
    ------------------------------------------------

 NO OUTPUT CONTROL FOR STRESS PERIOD   39   TIME STEP   29
 
 SOLVING FOR HEAD 
                                                   Max.-Head-Change                         Max.-Flux-Residual
  Residual-Control   Outer-Iter.   Inner-Iter.     Column Row Layer    Maximum-Head-Change  Column Row Layer    Maximum-Flux-Residual          L2-NORM 
          0                 1           2             4   13     1       0.6417159583E-02       4   13    1         0.3685628259E+00      0.7465721026E+00
          0                 2           2             7   13     1      -0.1733649138E-02       7   13    1        -0.9614828827E-01      0.1152960231E+00
          0                 3           2             7   13     1       0.1180213811E-03       7   13    1         0.6728437040E-02      0.8166827360E-02
          0                 4           1             7   13     1      -0.4692538362E-05       7   13    1        -0.2749754462E-03      0.4137354536E-03

    ------------------------------------------------
       NWT REQUIRED            4 OUTER ITERATIONS 
       AND A TOTAL OF          7 INNER ITERATIONS.
    ------------------------------------------------

 NO OUTPUT CONTROL FOR STRESS PERIOD   39   TIME STEP   30



 STREAM LISTING     PERIOD     39   STEP       30

 LAYER ROW COL. STREAM  RCH.  FLOW INTO     FLOW TO   FLOW OUT OF   OVRLND.     DIRECT     STREAM       STREAM     STREAM     STREAM   STREAMBED  STREAMBED
                SEG.NO.  NO.  STRM. RCH.    AQUIFER    STRM. RCH.    RUNOFF     PRECIP       ET          HEAD       DEPTH      WIDTH   CONDCTNC.   GRADIENT

   1    1    1     1     1    3.2750E+01  2.7790E-01   3.2473E+01  0.000E+00  0.000E+00  0.000E+00  1.09432E+03  1.273E+00  1.445E+01  6.503E-02  1.424E+00
   1    2    2     1     2    3.2473E+01  4.3019E-01   3.2042E+01  0.000E+00  0.000E+00  0.000E+00  1.08933E+03  1.270E+00  1.439E+01  1.007E-01  1.423E+00
   1    3    3     1     3    3.2042E+01  3.6669E-01   3.1676E+01  0.000E+00  0.000E+00  0.000E+00  1.08369E+03  1.267E+00  1.432E+01  8.594E-02  1.422E+00
   1    3    4     1     4    3.1676E+01  3.3752E-01   3.1338E+01  0.000E+00  0.000E+00  0.000E+00  1.07867E+03  1.264E+00  1.426E+01  7.916E-02  1.421E+00
   1    4    5     2     1    2.9338E+01  3.3732E-01   2.9001E+01  0.000E+00  0.000E+00  0.000E+00  1.07326E+03  1.325E+00  1.200E+01  7.800E-02  1.442E+00
   1    5    6     2     2    2.9001E+01  2.5899E-01   2.8742E+01  0.000E+00  0.000E+00  0.000E+00  1.06783E+03  1.317E+00  1.200E+01  6.000E-02  1.439E+00
   1    6    6     2     3    2.8742E+01  2.5857E-01   2.8483E+01  0.000E+00  0.000E+00  0.000E+00  1.06310E+03  1.309E+00  1.200E+01  6.000E-02  1.436E+00
   1    7    6     2     4    2.8483E+01  2.5814E-01   2.8225E+01  0.000E+00  0.000E+00  0.000E+00  1.05838E+03  1.302E+00  1.200E+01  6.000E-02  1.434E+00
   1    8    6     2     5    2.8225E+01  2.5771E-01   2.7967E+01  0.000E+00  0.000E+00  0.000E+00  1.05365E+03  1.295E+00  1.200E+01  6.000E-02  1.432E+00
   1    3    5     3     1    2.0000E+00  2.8252E-01   1.7175E+00  0.000E+00  0.000E+00  0.000E+00  1.07555E+03  1.909E+00  9.636E+00  7.227E-02  1.955E+00
   1    3    6     3     2    1.7175E+00  2.4905E-01   1.4684E+00  0.000E+00  0.000E+00  0.000E+00  1.07264E+03  1.727E+00  8.909E+00  6.682E-02  1.864E+00
   1    3    7     3     3    1.4684E+00  1.9718E-01   1.2712E+00  0.000E+00  0.000E+00  0.000E+00  1.06987E+03  1.555E+00  8.218E+00  5.547E-02  1.777E+00
   1    4    8     3     4    1.2712E+00  2.2567E-01   1.0456E+00  0.000E+00  0.000E+00  0.000E+00  1.06682E+03  1.364E+00  7.455E+00  6.709E-02  1.682E+00
   1    5    8     3     5    1.0456E+00  1.5790E-01   8.8768E-01  0.000E+00  0.000E+00  0.000E+00  1.06362E+03  1.164E+00  6.655E+00  4.991E-02  1.582E+00
   1    6    8     3     6    8.8768E-01  5.5980E-02   8.3170E-01  0.000E+00  0.000E+00  0.000E+00  1.06158E+03  1.036E+00  6.145E+00  1.844E-02  1.518E+00
   1    5   10     4     1    1.0000E+01  9.0919E-02   9.9091E+00  0.000E+00  0.000E+00  0.000E+00  1.07836E+03  6.368E-01  1.000E+01  2.500E-02  1.212E+00
   1    5    9     4     2    9.9091E+00  1.8158E-01   9.7275E+00  0.000E+00  0.000E+00  0.000E+00  1.07154E+03  6.315E-01  1.000E+01  5.000E-02  1.211E+00
   1    6    8     4     3    9.7275E+00  1.2689E-01   9.6006E+00  0.000E+00  0.000E+00  0.000E+00  1.06381E+03  6.256E-01  1.000E+01  3.500E-02  1.209E+00
   1    6    8     5     1    1.0432E+01  2.2686E-01   1.0205E+01  0.000E+00  0.000E+00  0.000E+00  1.05868E+03  6.790E-01  1.542E+01  6.166E-02  1.226E+00
   1    7    7     5     2    1.0205E+01  2.7894E-01   9.9265E+00  0.000E+00  0.000E+00  0.000E+00  1.05417E+03  6.732E-01  1.519E+01  7.594E-02  1.224E+00
   1    8    7     5     3    9.9265E+00  1.9221E-01   9.7343E+00  0.000E+00  0.000E+00  0.000E+00  1.04992E+03  6.676E-01  1.497E+01  5.241E-02  1.223E+00
   1    8    6     5     4    9.7343E+00  1.3577E-01   9.5985E+00  0.000E+00  0.000E+00  0.000E+00  1.04691E+03  6.637E-01  1.482E+01  3.706E-02  1.221E+00
   1    9    6     6     1    3.7566E+01  2.7334E-01   3.7293E+01  0.000E+00  0.000E+00  0.000E+00  1.04428E+03  1.556E+00  1.200E+01  6.000E-02  1.519E+00
   1   10    7     6     2    3.7293E+01  2.7293E-01   3.7020E+01  0.000E+00  0.000E+00  0.000E+00  1.03973E+03  1.549E+00  1.200E+01  6.000E-02  1.516E+00
   1   11    7     6     3    3.7020E+01  2.7252E-01   3.6747E+01  0.000E+00  0.000E+00  0.000E+00  1.03518E+03  1.542E+00  1.200E+01  6.000E-02  1.514E+00
   1   12    7     6     4    3.6747E+01  2.7211E-01   3.6475E+01  0.000E+00  0.000E+00  0.000E+00  1.03063E+03  1.535E+00  1.200E+01  6.000E-02  1.512E+00
   1   13    7     6     5    3.6475E+01  9.6044E-03   3.6465E+01  0.000E+00  0.000E+00  0.000E+00  1.02744E+03  1.532E+00  1.200E+01  2.400E-02  1.334E-01
   1   14    9     7     1    1.5000E+02  1.3423E+00   1.4866E+02  0.000E+00  0.000E+00  0.000E+00  1.03987E+03  2.288E+00  5.529E+01  5.593E-01  8.000E-01
   1   13    8     7     2    1.4866E+02  1.8470E+00   1.4681E+02  0.000E+00  0.000E+00  0.000E+00  1.03478E+03  2.279E+00  5.526E+01  6.148E-01  1.001E+00
   1   13    7     7     3    1.4681E+02  1.4794E+00   1.4533E+02  0.000E+00  0.000E+00  0.000E+00  1.02969E+03  2.270E+00  5.522E+01  5.584E-01  8.831E-01
   1   13    6     8     1    1.8180E+02  9.8231E-01   1.8081E+02  0.000E+00  0.000E+00  0.000E+00  1.02490E+03  3.024E+00  4.385E+01  4.469E-01  7.327E-01
   1   13    5     8     2    1.8081E+02  2.1092E-01   1.8060E+02  0.000E+00  0.000E+00  0.000E+00  1.01865E+03  3.021E+00  4.380E+01  4.463E-01  1.575E-01
   1   13    4     8     3    1.8060E+02 -2.1498E+00   1.8275E+02  0.000E+00  0.000E+00  0.000E+00  1.01240E+03  3.027E+00  4.389E+01  4.472E+00 -1.602E-01
   1   13    3     8     4    1.8275E+02 -3.3649E+00   1.8612E+02  0.000E+00  0.000E+00  0.000E+00  1.00617E+03  3.044E+00  4.414E+01  4.498E+00 -2.494E-01
   1   13    2     8     5    1.8612E+02 -2.2462E+00   1.8836E+02  0.000E+00  0.000E+00  0.000E+00  9.99936E+02  3.061E+00  4.439E+01  4.523E+00 -1.655E-01
   1   13    1     8     6    1.8836E+02 -1.7908E+00   1.9016E+02  0.000E+00  0.000E+00  0.000E+00  9.94948E+02  3.073E+00  4.456E+01  2.725E+00 -2.191E-01
   1    8    6     9     1    0.0000E+00  0.0000E+00   0.0000E+00  0.000E+00  0.000E+00  0.000E+00  1.07875E+03  0.000E+00  4.000E+00  0.000E+00  1.000E+00
   1    8    5     9     2    0.0000E+00  0.0000E+00   0.0000E+00  0.000E+00  0.000E+00  0.000E+00  1.07825E+03  0.000E+00  4.000E+00  0.000E+00  1.000E+00





UNSATURATED ZONE PACKAGE VOLUMETRIC BUDGET FOR  TIME STEP    30 STRESS PERIOD   39
  ------------------------------------------------------------------------------



     CUMULATIVE VOLUMES      L**3       RATES FOR THIS TIME STEP      L**3/T
     ------------------                 ------------------------

           IN:                                      IN:
           ---                                      ---
        INFILTRATION =  1634805479.3079          INFILTRATION =           4.4075

          OUT:                                     OUT:
          ----                                     ----
              UZF ET =  1497130024.1158                UZF ET =           0.7250
        UZF RECHARGE =     1189896.6605          UZF RECHARGE =           0.0165

            IN - OUT =   136485558.5315              IN - OUT =           3.6660

          STORAGE:                                 STORAGE:
          --------                                 --------
      STORAGE CHANGE =   136486517.0030        STORAGE CHANGE =           3.6660

 PERCENT DISCREPANCY IS DIFFERENCE BETWEEN IN-OUT MINUS CHANGE IN STORAGE
 DIVIDED BY THE AVERAGE OF IN AND OUT TIMES 100

 PERCENT DISCREPANCY =          -0.00     PERCENT DISCREPANCY =           0.00






1
  VOLUMETRIC BUDGET FOR ENTIRE MODEL AT END OF TIME STEP   30, STRESS PERIOD  39
  ------------------------------------------------------------------------------

     CUMULATIVE VOLUMES      L**3       RATES FOR THIS TIME STEP      L**3/T
     ------------------                 ------------------------

           IN:                                      IN:
           ---                                      ---
               AG WELLS  =   219671824.0000                 AG WELLS  =           0.0000
      DIVERSION SEGMENTS =   974557696.0000        DIVERSION SEGMENTS =           0.0000
           GW IRRIGATION =           0.0000             GW IRRIGATION =           0.0000
           SW IRRIGATION =           0.0000             SW IRRIGATION =           0.0000
        SYSTEM LOSSES GW =           0.0000          SYSTEM LOSSES GW =           0.0000
        SYSTEM LOSSES SW =           0.0000          SYSTEM LOSSES SW =           0.0000

                TOTAL IN =  1194229504.0000                  TOTAL IN =           0.0000

          OUT:                                     OUT:
          ----                                     ----
               AG WELLS  =           0.0000                 AG WELLS  =           0.0000
      DIVERSION SEGMENTS =           0.0000        DIVERSION SEGMENTS =           0.0000
           GW IRRIGATION =   219671824.0000             GW IRRIGATION =           0.0000
           SW IRRIGATION =   974577408.0000             SW IRRIGATION =           0.0000
        SYSTEM LOSSES GW =           0.0000          SYSTEM LOSSES GW =           0.0000
        SYSTEM LOSSES SW =           0.0000          SYSTEM LOSSES SW =           0.0000

               TOTAL OUT =  1194249216.0000                 TOTAL OUT =           0.0000

                IN - OUT =      -19712.0000                  IN - OUT =           0.0000

     PERCENT DISCREPANCY =          -0.00         PERCENT DISCREPANCY =           0.00



1
  VOLUMETRIC BUDGET FOR ENTIRE MODEL AT END OF TIME STEP   30, STRESS PERIOD  39
  ------------------------------------------------------------------------------

     CUMULATIVE VOLUMES      L**3       RATES FOR THIS TIME STEP      L**3/T
     ------------------                 ------------------------

           IN:                                      IN:
           ---                                      ---
             STORAGE     =   378647840.0000               STORAGE     =           0.6107
       CONSTANT HEAD     =           0.0000         CONSTANT HEAD     =           0.0000
     HEAD DEP BOUNDS     =    28594028.0000       HEAD DEP BOUNDS     =           0.2862
      STREAM LEAKAGE     =  1189203072.0000        STREAM LEAKAGE     =          12.1469
        UZF RECHARGE     =     1189896.7500          UZF RECHARGE     =       1.6474E-02
               GW ET     =           0.0000                 GW ET     =           0.0000
     SURFACE LEAKAGE     =           0.0000       SURFACE LEAKAGE     =           0.0000
           AG WELLS      =           0.0000             AG WELLS      =           0.0000

                TOTAL IN =  1597634816.0000                  TOTAL IN =          13.0603

          OUT:                                     OUT:
          ----                                     ----
             STORAGE     =   263283568.0000               STORAGE     =           3.2196
       CONSTANT HEAD     =           0.0000         CONSTANT HEAD     =           0.0000
     HEAD DEP BOUNDS     =    29064560.0000       HEAD DEP BOUNDS     =           0.2890
      STREAM LEAKAGE     =  1082353536.0000        STREAM LEAKAGE     =           9.5517
        UZF RECHARGE     =           0.0000          UZF RECHARGE     =           0.0000
               GW ET     =     3265349.0000                 GW ET     =           0.0000
     SURFACE LEAKAGE     =           0.0000       SURFACE LEAKAGE     =           0.0000
           AG WELLS      =   219671824.0000             AG WELLS      =           0.0000

               TOTAL OUT =  1597638912.0000                 TOTAL OUT =          13.0603

                IN - OUT =       -4096.0000                  IN - OUT =      -2.5749E-05

     PERCENT DISCREPANCY =          -0.00         PERCENT DISCREPANCY =          -0.00






         TIME SUMMARY AT END OF TIME STEP   30 IN STRESS PERIOD   39
                    SECONDS     MINUTES      HOURS       DAYS        YEARS
                    -----------------------------------------------------------
   TIME STEP LENGTH  87667.      1461.1      24.352      1.0147     2.77799E-03
 STRESS PERIOD TIME 2.63000E+06  43833.      730.56      30.440     8.33397E-02
         TOTAL TIME 1.00026E+08 1.66710E+06  27785.      1157.7      3.1696    
1
1
                            STRESS PERIOD NO.   40, LENGTH =   2630000.    
                            -----------------------------------------------

                              NUMBER OF TIME STEPS =    30

                               MULTIPLIER FOR DELT =     1.000

                            INITIAL TIME STEP SIZE =   87666.66    

 REUSING NON-PARAMETER GHB CELLS FROM LAST STRESS PERIOD

      2 GHB CELLS

 REUSING STREAM SEGMENT DATA FROM LAST STRESS PERIOD



            AREAL INFILTRATION RATE
 READING ON UNIT   19 WITH FORMAT: (10F4.0)            

            1           2           3           4           5           6           7           8           9          10
 ........................................................................................................................
   1   1.2000E-09   0.000       0.000       0.000       0.000       0.000       0.000       0.000       0.000       0.000    
   2   2.1000E-09  2.0000E-09  8.0000E-10  8.5000E-09   0.000       0.000       0.000       0.000       0.000       0.000    
   3   5.0000E-10  1.1000E-09  8.8000E-09  5.5000E-09   0.000       0.000       0.000       0.000       0.000       0.000    
   4   8.5000E-09  1.1000E-09  1.1000E-09  1.1000E-09  2.0000E-09   0.000       0.000       0.000       0.000       0.000    
   5   8.5000E-09  1.1000E-09  1.1000E-09  1.1000E-09  1.1000E-09   0.000       0.000       0.000       0.000       0.000    
   6   8.5000E-09  5.2000E-09  2.1000E-09  1.1000E-09  1.5000E-09   0.000       0.000       0.000       0.000       0.000    
   7   8.5000E-09  5.2000E-09  2.1000E-09  1.2000E-09  2.0000E-09   0.000       0.000       0.000       0.000       0.000    
   8   5.0000E-10  5.2000E-09  2.1000E-09  1.2000E-09  5.0000E-09   0.000       0.000       0.000       0.000       0.000    
   9   5.0000E-10  5.2000E-09  2.1000E-09  1.2000E-09  5.0000E-09   0.000       0.000       0.000       0.000       0.000    
  10   5.0000E-10  5.2000E-09  2.1000E-09  1.2000E-09  5.8000E-09   0.000       0.000       0.000       0.000       0.000    
  11   1.0000E-10  1.1000E-09  1.1000E-09  1.2000E-09  5.0000E-09   0.000       0.000       0.000       0.000       0.000    
  12   1.1000E-09  1.1000E-09  1.1000E-09  1.1000E-09  2.0000E-09   0.000       0.000       0.000       0.000       0.000    
  13   1.1000E-09  2.2000E-09  2.2000E-09  2.1000E-09  1.0000E-09   0.000       0.000       0.000       0.000       0.000    
  14   2.0000E-10  5.5000E-09  5.5000E-09  5.2000E-09  1.0000E-09   0.000       0.000       0.000       0.000       0.000    
  15    0.000      8.8000E-09  8.8000E-09   0.000       0.000       0.000       0.000       0.000       0.000       0.000    

                  ET RATE =  5.000000E-10

 USING ET EXTINCTION DEPTH FROM PREVIOUS STRESS PERIOD. CURRENT PERIOD IS:      40

 USING EXTINCTION WATER CONTENT FROM PREVIOUS STRESS PERIOD. CURRENT PERIOD IS:      40

 USING AIR ENTRY PRESSURE FROM PREVIOUS STRESS PERIOD. CURRENT PERIOD IS:      40

 USING ROOT PRESSURE HEAD FROM PREVIOUS STRESS PERIOD. CURRENT PERIOD IS:      40

 USING ROOT ACTIVITY FROM PREVIOUS STRESS PERIOD. CURRENT PERIOD IS:      40

 PROCESSING AG STRESS PERIOD DATA

 READING AG STRESS PERIOD DATA

 READING IRRIGATION SEGMENT

 READING IRRIGATION WELL

 READING SUPPLEMENTAL WELL

 END PROCESSING AG STRESS PERIOD DATA OPTIONS
 
 SOLVING FOR HEAD 
                                                   Max.-Head-Change                         Max.-Flux-Residual
  Residual-Control   Outer-Iter.   Inner-Iter.     Column Row Layer    Maximum-Head-Change  Column Row Layer    Maximum-Flux-Residual          L2-NORM 
          0                 1           2             4   13     1       0.2198078283E-01       4   13    1         0.1268076941E+01      0.2327593000E+01
          0                 2           2             3   13     1       0.2651111506E-02       3   13    1         0.1558908100E+00      0.2503850374E+00
          0                 3           2             3   13     1       0.3348839496E-03       3   13    1         0.1926502395E-01      0.2359282044E-01
          0                 4           1             3   13     1       0.4319804978E-04       3   13    1         0.2509971969E-02      0.2557537301E-02

    ------------------------------------------------
       NWT REQUIRED            4 OUTER ITERATIONS 
       AND A TOTAL OF          7 INNER ITERATIONS.
    ------------------------------------------------

 NO OUTPUT CONTROL FOR STRESS PERIOD   40   TIME STEP    1
 
 SOLVING FOR HEAD 
                                                   Max.-Head-Change                         Max.-Flux-Residual
  Residual-Control   Outer-Iter.   Inner-Iter.     Column Row Layer    Maximum-Head-Change  Column Row Layer    Maximum-Flux-Residual          L2-NORM 
          0                 1           2             4   13     1       0.1985820374E-01       4   13    1         0.1145308549E+01      0.2139059916E+01
          0                 2           2             3   13     1       0.2390001428E-02       3   13    1         0.1386004217E+00      0.2166137960E+00
          0                 3           2             3   13     1       0.3112509545E-03       3   13    1         0.1787293888E-01      0.2336377564E-01
          0                 4           1             3   13     1       0.4056458883E-04       3   13    1         0.2340010903E-02      0.2756525391E-02

    ------------------------------------------------
       NWT REQUIRED            4 OUTER ITERATIONS 
       AND A TOTAL OF          7 INNER ITERATIONS.
    ------------------------------------------------

 NO OUTPUT CONTROL FOR STRESS PERIOD   40   TIME STEP    2
 
 SOLVING FOR HEAD 
                                                   Max.-Head-Change                         Max.-Flux-Residual
  Residual-Control   Outer-Iter.   Inner-Iter.     Column Row Layer    Maximum-Head-Change  Column Row Layer    Maximum-Flux-Residual          L2-NORM 
          0                 1           2             4   13     1       0.1822120651E-01       4   13    1         0.1050667522E+01      0.1980824392E+01
          0                 2           2             4   13     1       0.2313502979E-02       4   13    1         0.1339740221E+00      0.2271892664E+00
          0                 3           2             4   13     1       0.2939867320E-03       4   13    1         0.1696317480E-01      0.2542535624E-01
          0                 4           1             4   13     1       0.3743464521E-04       4   13    1         0.2162384679E-02      0.3063013120E-02

    ------------------------------------------------
       NWT REQUIRED            4 OUTER ITERATIONS 
       AND A TOTAL OF          7 INNER ITERATIONS.
    ------------------------------------------------

 NO OUTPUT CONTROL FOR STRESS PERIOD   40   TIME STEP    3
 
 SOLVING FOR HEAD 
                                                   Max.-Head-Change                         Max.-Flux-Residual
  Residual-Control   Outer-Iter.   Inner-Iter.     Column Row Layer    Maximum-Head-Change  Column Row Layer    Maximum-Flux-Residual          L2-NORM 
          0                 1           2             2   13     1       0.1677285057E-01       2   13    1         0.9498349247E+00      0.1816454984E+01
          0                 2           2             4   13     1       0.2028148080E-02       4   13    1         0.1174948034E+00      0.2064381843E+00
          0                 3           2             4   13     1       0.2570217017E-03       4   13    1         0.1482298408E-01      0.2270607004E-01
          0                 4           1             3   13     1       0.3339864570E-04       3   13    1         0.1919516128E-02      0.2708773192E-02

    ------------------------------------------------
       NWT REQUIRED            4 OUTER ITERATIONS 
       AND A TOTAL OF          7 INNER ITERATIONS.
    ------------------------------------------------

 NO OUTPUT CONTROL FOR STRESS PERIOD   40   TIME STEP    4
 
 SOLVING FOR HEAD 
                                                   Max.-Head-Change                         Max.-Flux-Residual
  Residual-Control   Outer-Iter.   Inner-Iter.     Column Row Layer    Maximum-Head-Change  Column Row Layer    Maximum-Flux-Residual          L2-NORM 
          0                 1           2             2   13     1       0.1547693679E-01       2   13    1         0.8765368763E+00      0.1672376325E+01
          0                 2           2             4   13     1       0.1781243334E-02       4   13    1         0.1032345240E+00      0.1884779976E+00
          0                 3           2             4   13     1       0.2257727515E-03       4   13    1         0.1301468208E-01      0.2035641981E-01
          0                 4           1             3   13     1       0.2978570989E-04       3   13    1         0.1712254506E-02      0.2401384476E-02

    ------------------------------------------------
       NWT REQUIRED            4 OUTER ITERATIONS 
       AND A TOTAL OF          7 INNER ITERATIONS.
    ------------------------------------------------

 NO OUTPUT CONTROL FOR STRESS PERIOD   40   TIME STEP    5
 
 SOLVING FOR HEAD 
                                                   Max.-Head-Change                         Max.-Flux-Residual
  Residual-Control   Outer-Iter.   Inner-Iter.     Column Row Layer    Maximum-Head-Change  Column Row Layer    Maximum-Flux-Residual          L2-NORM 
          0                 1           2             2   13     1       0.1427654662E-01       2   13    1         0.8086167542E+00      0.1546127458E+01
          0                 2           2             4   13     1       0.1561706685E-02       4   13    1         0.9055149035E-01      0.1726744534E+00
          0                 3           2             3   13     1       0.2020068562E-03       3   13    1         0.1154864333E-01      0.1832660013E-01
          0                 4           1             3   13     1       0.2676673742E-04       3   13    1         0.1539099314E-02      0.2142212947E-02

    ------------------------------------------------
       NWT REQUIRED            4 OUTER ITERATIONS 
       AND A TOTAL OF          7 INNER ITERATIONS.
    ------------------------------------------------

 NO OUTPUT CONTROL FOR STRESS PERIOD   40   TIME STEP    6
 
 SOLVING FOR HEAD 
                                                   Max.-Head-Change                         Max.-Flux-Residual
  Residual-Control   Outer-Iter.   Inner-Iter.     Column Row Layer    Maximum-Head-Change  Column Row Layer    Maximum-Flux-Residual          L2-NORM 
          0                 1           2             2   13     1       0.1316556127E-01       2   13    1         0.7457358620E+00      0.1435400602E+01
          0                 2           2             4   13     1       0.1375222981E-02       4   13    1         0.7978229365E-01      0.1589070578E+00
          0                 3           2             3   13     1       0.1802833122E-03       3   13    1         0.1030588665E-01      0.1651613603E-01
          0                 4           1             3   13     1       0.2386497648E-04       3   13    1         0.1372514395E-02      0.1902976439E-02

    ------------------------------------------------
       NWT REQUIRED            4 OUTER ITERATIONS 
       AND A TOTAL OF          7 INNER ITERATIONS.
    ------------------------------------------------

 NO OUTPUT CONTROL FOR STRESS PERIOD   40   TIME STEP    7
 
 SOLVING FOR HEAD 
                                                   Max.-Head-Change                         Max.-Flux-Residual
  Residual-Control   Outer-Iter.   Inner-Iter.     Column Row Layer    Maximum-Head-Change  Column Row Layer    Maximum-Flux-Residual          L2-NORM 
          0                 1           2             2   13     1       0.1213796145E-01       2   13    1         0.6875584913E+00      0.1338244953E+01
          0                 2           2             3   13     1       0.1219022581E-02       3   13    1         0.7059976317E-01      0.1469433362E+00
          0                 3           2             3   13     1       0.1617402060E-03       3   13    1         0.9245297366E-02      0.1497575484E-01
          0                 4           1             3   13     1       0.2148800679E-04       3   13    1         0.1236060403E-02      0.1705727296E-02

    ------------------------------------------------
       NWT REQUIRED            4 OUTER ITERATIONS 
       AND A TOTAL OF          7 INNER ITERATIONS.
    ------------------------------------------------

 NO OUTPUT CONTROL FOR STRESS PERIOD   40   TIME STEP    8
 
 SOLVING FOR HEAD 
                                                   Max.-Head-Change                         Max.-Flux-Residual
  Residual-Control   Outer-Iter.   Inner-Iter.     Column Row Layer    Maximum-Head-Change  Column Row Layer    Maximum-Flux-Residual          L2-NORM 
          0                 1           2             2   13     1       0.1118819084E-01       2   13    1         0.6337742362E+00      0.1252960433E+01
          0                 2           2             3   13     1       0.1089177882E-02       3   13    1         0.6311755248E-01      0.1363759644E+00
          0                 3           2             3   13     1       0.1444160617E-03       3   13    1         0.8253969994E-02      0.1358138812E-01
          0                 4           1             3   13     1       0.1916183077E-04       3   13    1         0.1102453228E-02      0.1517605805E-02

    ------------------------------------------------
       NWT REQUIRED            4 OUTER ITERATIONS 
       AND A TOTAL OF          7 INNER ITERATIONS.
    ------------------------------------------------

 NO OUTPUT CONTROL FOR STRESS PERIOD   40   TIME STEP    9
 
 SOLVING FOR HEAD 
                                                   Max.-Head-Change                         Max.-Flux-Residual
  Residual-Control   Outer-Iter.   Inner-Iter.     Column Row Layer    Maximum-Head-Change  Column Row Layer    Maximum-Flux-Residual          L2-NORM 
          0                 1           2             2   13     1       0.1031080580E-01       2   13    1         0.5840778485E+00      0.1177993277E+01
          0                 2           2             3   13     1       0.9739417979E-03       3   13    1         0.5647456859E-01      0.1271213112E+00
          0                 3           2             3   13     1       0.1294177746E-03       3   13    1         0.7395865572E-02      0.1238354504E-01
          0                 4           1             3   13     1       0.1720409583E-04       3   13    1         0.9899905990E-03      0.1360263599E-02

    ------------------------------------------------
       NWT REQUIRED            4 OUTER ITERATIONS 
       AND A TOTAL OF          7 INNER ITERATIONS.
    ------------------------------------------------

 NO OUTPUT CONTROL FOR STRESS PERIOD   40   TIME STEP   10
 
 SOLVING FOR HEAD 
                                                   Max.-Head-Change                         Max.-Flux-Residual
  Residual-Control   Outer-Iter.   Inner-Iter.     Column Row Layer    Maximum-Head-Change  Column Row Layer    Maximum-Flux-Residual          L2-NORM 
          0                 1           2             2   13     1       0.9500688446E-02       2   13    1         0.5381822738E+00      0.1112047199E+01
          0                 2           2             2   13     1      -0.8772392135E-03       2   13    1        -0.5179825120E-01      0.1191019238E+00
          0                 3           2             3   13     1       0.1158664004E-03       3   13    1         0.6620380297E-02      0.1132676379E-01
          0                 4           1             3   13     1       0.1539981715E-04       3   13    1         0.8863454532E-03      0.1215930783E-02

    ------------------------------------------------
       NWT REQUIRED            4 OUTER ITERATIONS 
       AND A TOTAL OF          7 INNER ITERATIONS.
    ------------------------------------------------

 NO OUTPUT CONTROL FOR STRESS PERIOD   40   TIME STEP   11
 
 SOLVING FOR HEAD 
                                                   Max.-Head-Change                         Max.-Flux-Residual
  Residual-Control   Outer-Iter.   Inner-Iter.     Column Row Layer    Maximum-Head-Change  Column Row Layer    Maximum-Flux-Residual          L2-NORM 
          0                 1           2             2   13     1       0.8753089137E-02       2   13    1         0.4958209539E+00      0.1053976029E+01
          0                 2           2             2   13     1      -0.8092640752E-03       2   13    1        -0.4776341956E-01      0.1119858876E+00
          0                 3           1             3   13     1       0.1028624644E-03       3   13    1         0.5875640903E-02      0.1036456128E-01
          0                 4           1             3   13     1       0.1433823771E-04       3   13    1         0.8256483952E-03      0.1111387626E-02

    ------------------------------------------------
       NWT REQUIRED            4 OUTER ITERATIONS 
       AND A TOTAL OF          6 INNER ITERATIONS.
    ------------------------------------------------

 NO OUTPUT CONTROL FOR STRESS PERIOD   40   TIME STEP   12
 
 SOLVING FOR HEAD 
                                                   Max.-Head-Change                         Max.-Flux-Residual
  Residual-Control   Outer-Iter.   Inner-Iter.     Column Row Layer    Maximum-Head-Change  Column Row Layer    Maximum-Flux-Residual          L2-NORM 
          0                 1           2             2   13     1       0.8063476207E-02       2   13    1         0.4567389529E+00      0.1002799178E+01
          0                 2           2             2   13     1      -0.7464043668E-03       2   13    1        -0.4403415467E-01      0.1057627548E+00
          0                 3           1             3   13     1       0.9256553326E-04       3   13    1         0.5286840677E-02      0.9567728810E-02

    ------------------------------------------------
       NWT REQUIRED            3 OUTER ITERATIONS 
       AND A TOTAL OF          5 INNER ITERATIONS.
    ------------------------------------------------

 NO OUTPUT CONTROL FOR STRESS PERIOD   40   TIME STEP   13
 
 SOLVING FOR HEAD 
                                                   Max.-Head-Change                         Max.-Flux-Residual
  Residual-Control   Outer-Iter.   Inner-Iter.     Column Row Layer    Maximum-Head-Change  Column Row Layer    Maximum-Flux-Residual          L2-NORM 
          0                 1           2             2   13     1       0.7427354037E-02       2   13    1         0.4206825367E+00      0.9576532005E+00
          0                 2           2             2   13     1      -0.6883067626E-03       2   13    1        -0.4058968471E-01      0.1003597592E+00
          0                 3           1             3   13     1       0.8320589931E-04       3   13    1         0.4751217720E-02      0.8878624900E-02

    ------------------------------------------------
       NWT REQUIRED            3 OUTER ITERATIONS 
       AND A TOTAL OF          5 INNER ITERATIONS.
    ------------------------------------------------

 NO OUTPUT CONTROL FOR STRESS PERIOD   40   TIME STEP   14
 
 SOLVING FOR HEAD 
                                                   Max.-Head-Change                         Max.-Flux-Residual
  Residual-Control   Outer-Iter.   Inner-Iter.     Column Row Layer    Maximum-Head-Change  Column Row Layer    Maximum-Flux-Residual          L2-NORM 
          0                 1           2             2   13     1       0.6841045756E-02       2   13    1         0.3874457071E+00      0.9177436544E+00
          0                 2           2             2   13     1      -0.6346055215E-03       2   13    1        -0.3740739830E-01      0.9561179618E-01
          0                 3           1             3   13     1       0.7459313557E-04       3   13    1         0.4258305002E-02      0.8262403170E-02

    ------------------------------------------------
       NWT REQUIRED            3 OUTER ITERATIONS 
       AND A TOTAL OF          5 INNER ITERATIONS.
    ------------------------------------------------

 NO OUTPUT CONTROL FOR STRESS PERIOD   40   TIME STEP   15
 
 SOLVING FOR HEAD 
                                                   Max.-Head-Change                         Max.-Flux-Residual
  Residual-Control   Outer-Iter.   Inner-Iter.     Column Row Layer    Maximum-Head-Change  Column Row Layer    Maximum-Flux-Residual          L2-NORM 
          0                 1           2             1   13     1       0.6321328917E-02       2   13    1         0.3568240282E+00      0.8824002871E+00
          0                 2           2             1   13     1      -0.5969460701E-03       2   13    1        -0.3447115680E-01      0.9141585761E-01
          0                 3           1             3   13     1       0.6686641534E-04       3   13    1         0.3816106502E-02      0.7723161272E-02

    ------------------------------------------------
       NWT REQUIRED            3 OUTER ITERATIONS 
       AND A TOTAL OF          5 INNER ITERATIONS.
    ------------------------------------------------

 NO OUTPUT CONTROL FOR STRESS PERIOD   40   TIME STEP   16
 
 SOLVING FOR HEAD 
                                                   Max.-Head-Change                         Max.-Flux-Residual
  Residual-Control   Outer-Iter.   Inner-Iter.     Column Row Layer    Maximum-Head-Change  Column Row Layer    Maximum-Flux-Residual          L2-NORM 
          0                 1           2             1   13     1       0.6020166174E-02       1   13    1         0.3288825070E+00      0.8510515140E+00
          0                 2           2             1   13     1      -0.5691823798E-03       1   13    1        -0.3196989056E-01      0.8773229813E-01
          0                 3           1             3   13     1       0.5994063371E-04       3   13    1         0.3419700231E-02      0.7254810061E-02

    ------------------------------------------------
       NWT REQUIRED            3 OUTER ITERATIONS 
       AND A TOTAL OF          5 INNER ITERATIONS.
    ------------------------------------------------

 NO OUTPUT CONTROL FOR STRESS PERIOD   40   TIME STEP   17
 
 SOLVING FOR HEAD 
                                                   Max.-Head-Change                         Max.-Flux-Residual
  Residual-Control   Outer-Iter.   Inner-Iter.     Column Row Layer    Maximum-Head-Change  Column Row Layer    Maximum-Flux-Residual          L2-NORM 
          0                 1           2             1   13     1       0.5731468309E-02       1   13    1         0.3131750155E+00      0.8231767614E+00
          0                 2           2             1   13     1      -0.5424849600E-03       1   13    1        -0.3047652385E-01      0.8448758071E-01
          0                 3           1             3   13     1       0.5381030286E-04       3   13    1         0.3068920265E-02      0.6847282560E-02

    ------------------------------------------------
       NWT REQUIRED            3 OUTER ITERATIONS 
       AND A TOTAL OF          5 INNER ITERATIONS.
    ------------------------------------------------

 NO OUTPUT CONTROL FOR STRESS PERIOD   40   TIME STEP   18
 
 SOLVING FOR HEAD 
                                                   Max.-Head-Change                         Max.-Flux-Residual
  Residual-Control   Outer-Iter.   Inner-Iter.     Column Row Layer    Maximum-Head-Change  Column Row Layer    Maximum-Flux-Residual          L2-NORM 
          0                 1           2             1   13     1       0.5454939514E-02       1   13    1         0.2981233232E+00      0.7983459224E+00
          0                 2           2             1   13     1      -0.5168392175E-03       1   13    1        -0.2904136928E-01      0.8162667811E-01
          0                 3           1             3   13     1       0.4829457726E-04       3   13    1         0.2753201742E-02      0.6495936581E-02

    ------------------------------------------------
       NWT REQUIRED            3 OUTER ITERATIONS 
       AND A TOTAL OF          5 INNER ITERATIONS.
    ------------------------------------------------

 NO OUTPUT CONTROL FOR STRESS PERIOD   40   TIME STEP   19
 
 SOLVING FOR HEAD 
                                                   Max.-Head-Change                         Max.-Flux-Residual
  Residual-Control   Outer-Iter.   Inner-Iter.     Column Row Layer    Maximum-Head-Change  Column Row Layer    Maximum-Flux-Residual          L2-NORM 
          0                 1           2             1   13     1       0.5190204195E-02       1   13    1         0.2837078043E+00      0.7761791164E+00
          0                 2           2             1   13     1      -0.4922105154E-03       1   13    1        -0.2766256544E-01      0.7909861163E-01
          0                 3           1             3   13     1       0.4345257778E-04       3   13    1         0.2476132590E-02      0.6192589243E-02

    ------------------------------------------------
       NWT REQUIRED            3 OUTER ITERATIONS 
       AND A TOTAL OF          5 INNER ITERATIONS.
    ------------------------------------------------

 NO OUTPUT CONTROL FOR STRESS PERIOD   40   TIME STEP   20
 
 SOLVING FOR HEAD 
                                                   Max.-Head-Change                         Max.-Flux-Residual
  Residual-Control   Outer-Iter.   Inner-Iter.     Column Row Layer    Maximum-Head-Change  Column Row Layer    Maximum-Flux-Residual          L2-NORM 
          0                 1           2             1   13     1       0.4936993122E-02       1   13    1         0.2699146305E+00      0.7563404346E+00
          0                 2           2             2    2     1      -0.4781990205E-03       1   13    1        -0.2634014514E-01      0.7686504324E-01
          0                 3           1             3   13     1       0.3912321402E-04       3   13    1         0.2228319448E-02      0.5931605948E-02

    ------------------------------------------------
       NWT REQUIRED            3 OUTER ITERATIONS 
       AND A TOTAL OF          5 INNER ITERATIONS.
    ------------------------------------------------

 NO OUTPUT CONTROL FOR STRESS PERIOD   40   TIME STEP   21
 
 SOLVING FOR HEAD 
                                                   Max.-Head-Change                         Max.-Flux-Residual
  Residual-Control   Outer-Iter.   Inner-Iter.     Column Row Layer    Maximum-Head-Change  Column Row Layer    Maximum-Flux-Residual          L2-NORM 
          0                 1           2             2    2     1       0.4882006867E-02       1   13    1         0.2567220180E+00      0.7385325573E+00
          0                 2           2             2    2     1      -0.4748873502E-03       2    2    1        -0.2550638914E-01      0.7487828276E-01
          0                 3           1             3   13     1       0.3539610803E-04       3   13    1         0.2015189702E-02      0.5704907009E-02

    ------------------------------------------------
       NWT REQUIRED            3 OUTER ITERATIONS 
       AND A TOTAL OF          5 INNER ITERATIONS.
    ------------------------------------------------

 NO OUTPUT CONTROL FOR STRESS PERIOD   40   TIME STEP   22
 
 SOLVING FOR HEAD 
                                                   Max.-Head-Change                         Max.-Flux-Residual
  Residual-Control   Outer-Iter.   Inner-Iter.     Column Row Layer    Maximum-Head-Change  Column Row Layer    Maximum-Flux-Residual          L2-NORM 
          0                 1           2             2    2     1       0.4848378191E-02       2    2    1         0.2532933059E+00      0.7225132352E+00
          0                 2           2             2    2     1      -0.4716161750E-03       2    2    1        -0.2532940919E-01      0.7310766041E-01
          0                 3           1             2    2     1       0.3211530150E-04       3   13    1         0.1822361328E-02      0.5506616343E-02

    ------------------------------------------------
       NWT REQUIRED            3 OUTER ITERATIONS 
       AND A TOTAL OF          5 INNER ITERATIONS.
    ------------------------------------------------

 NO OUTPUT CONTROL FOR STRESS PERIOD   40   TIME STEP   23
 
 SOLVING FOR HEAD 
                                                   Max.-Head-Change                         Max.-Flux-Residual
  Residual-Control   Outer-Iter.   Inner-Iter.     Column Row Layer    Maximum-Head-Change  Column Row Layer    Maximum-Flux-Residual          L2-NORM 
          0                 1           2             2    2     1       0.4815246888E-02       2    2    1         0.2515496968E+00      0.7080636702E+00
          0                 2           2             2    2     1      -0.4683933807E-03       2    2    1        -0.2515504682E-01      0.7151830580E-01
          0                 3           1             2    2     1       0.3189584172E-04       2    2    1         0.1760853312E-02      0.5332151626E-02

    ------------------------------------------------
       NWT REQUIRED            3 OUTER ITERATIONS 
       AND A TOTAL OF          5 INNER ITERATIONS.
    ------------------------------------------------

 NO OUTPUT CONTROL FOR STRESS PERIOD   40   TIME STEP   24
 
 SOLVING FOR HEAD 
                                                   Max.-Head-Change                         Max.-Flux-Residual
  Residual-Control   Outer-Iter.   Inner-Iter.     Column Row Layer    Maximum-Head-Change  Column Row Layer    Maximum-Flux-Residual          L2-NORM 
          0                 1           2             2    2     1       0.4782604442E-02       2    2    1         0.2498318760E+00      0.6949990476E+00
          0                 2           2             2    2     1      -0.4652181398E-03       2    2    1        -0.2498326337E-01      0.7009405030E-01
          0                 3           1             2    2     1       0.3167961938E-04       2    2    1         0.1748828471E-02      0.5179497711E-02

    ------------------------------------------------
       NWT REQUIRED            3 OUTER ITERATIONS 
       AND A TOTAL OF          5 INNER ITERATIONS.
    ------------------------------------------------

 NO OUTPUT CONTROL FOR STRESS PERIOD   40   TIME STEP   25
 
 SOLVING FOR HEAD 
                                                   Max.-Head-Change                         Max.-Flux-Residual
  Residual-Control   Outer-Iter.   Inner-Iter.     Column Row Layer    Maximum-Head-Change  Column Row Layer    Maximum-Flux-Residual          L2-NORM 
          0                 1           2             2    2     1       0.4750443235E-02       2    2    1         0.2481394020E+00      0.6831443310E+00
          0                 2           2             2    2     1      -0.4620897105E-03       2    2    1        -0.2481401459E-01      0.6881226924E-01
          0                 3           1             2    2     1       0.3146658504E-04       2    2    1         0.1736981051E-02      0.5046025989E-02

    ------------------------------------------------
       NWT REQUIRED            3 OUTER ITERATIONS 
       AND A TOTAL OF          5 INNER ITERATIONS.
    ------------------------------------------------

 NO OUTPUT CONTROL FOR STRESS PERIOD   40   TIME STEP   26
 
 SOLVING FOR HEAD 
                                                   Max.-Head-Change                         Max.-Flux-Residual
  Residual-Control   Outer-Iter.   Inner-Iter.     Column Row Layer    Maximum-Head-Change  Column Row Layer    Maximum-Flux-Residual          L2-NORM 
          0                 1           2             2    2     1       0.4718667610E-02       2    2    1         0.2464672875E+00      0.6723630217E+00
          0                 2           2             2    2     1      -0.4589987883E-03       2    2    1        -0.2464680179E-01      0.6765525274E-01
          0                 3           1             2    2     1       0.3125610487E-04       2    2    1         0.1725276169E-02      0.4928806326E-02

    ------------------------------------------------
       NWT REQUIRED            3 OUTER ITERATIONS 
       AND A TOTAL OF          5 INNER ITERATIONS.
    ------------------------------------------------

 NO OUTPUT CONTROL FOR STRESS PERIOD   40   TIME STEP   27
 
 SOLVING FOR HEAD 
                                                   Max.-Head-Change                         Max.-Flux-Residual
  Residual-Control   Outer-Iter.   Inner-Iter.     Column Row Layer    Maximum-Head-Change  Column Row Layer    Maximum-Flux-Residual          L2-NORM 
          0                 1           2             2    2     1       0.4687358771E-02       2    2    1         0.2448197570E+00      0.6625233566E+00
          0                 2           2             2    2     1      -0.4559532727E-03       2    2    1        -0.2448204744E-01      0.6660647813E-01
          0                 3           1             2    2     1       0.3104871731E-04       2    2    1         0.1713743397E-02      0.4826092279E-02

    ------------------------------------------------
       NWT REQUIRED            3 OUTER ITERATIONS 
       AND A TOTAL OF          5 INNER ITERATIONS.
    ------------------------------------------------

 NO OUTPUT CONTROL FOR STRESS PERIOD   40   TIME STEP   28
 
 SOLVING FOR HEAD 
                                                   Max.-Head-Change                         Max.-Flux-Residual
  Residual-Control   Outer-Iter.   Inner-Iter.     Column Row Layer    Maximum-Head-Change  Column Row Layer    Maximum-Flux-Residual          L2-NORM 
          0                 1           2             2    2     1       0.4656509127E-02       2    2    1         0.2431964289E+00      0.6535230140E+00
          0                 2           2             2    2     1      -0.4529524239E-03       2    2    1        -0.2431971334E-01      0.6565338281E-01
          0                 3           1             2    2     1       0.3084437030E-04       2    2    1         0.1702380011E-02      0.4733330825E-02

    ------------------------------------------------
       NWT REQUIRED            3 OUTER ITERATIONS 
       AND A TOTAL OF          5 INNER ITERATIONS.
    ------------------------------------------------

 NO OUTPUT CONTROL FOR STRESS PERIOD   40   TIME STEP   29
 
 SOLVING FOR HEAD 
                                                   Max.-Head-Change                         Max.-Flux-Residual
  Residual-Control   Outer-Iter.   Inner-Iter.     Column Row Layer    Maximum-Head-Change  Column Row Layer    Maximum-Flux-Residual          L2-NORM 
          0                 1           2             2    2     1       0.4626111603E-02       2    2    1         0.2415969095E+00      0.6452797221E+00
          0                 2           2             2    2     1      -0.4499955546E-03       2    2    1        -0.2415976015E-01      0.6478475213E-01
          0                 3           1             2    2     1       0.3064301885E-04       2    2    1         0.1691183284E-02      0.4652175570E-02

    ------------------------------------------------
       NWT REQUIRED            3 OUTER ITERATIONS 
       AND A TOTAL OF          5 INNER ITERATIONS.
    ------------------------------------------------

 NO OUTPUT CONTROL FOR STRESS PERIOD   40   TIME STEP   30



 STREAM LISTING     PERIOD     40   STEP       30

 LAYER ROW COL. STREAM  RCH.  FLOW INTO     FLOW TO   FLOW OUT OF   OVRLND.     DIRECT     STREAM       STREAM     STREAM     STREAM   STREAMBED  STREAMBED
                SEG.NO.  NO.  STRM. RCH.    AQUIFER    STRM. RCH.    RUNOFF     PRECIP       ET          HEAD       DEPTH      WIDTH   CONDCTNC.   GRADIENT

   1    1    1     1     1    7.3498E+01  4.1744E-01   7.3080E+01  0.000E+00  0.000E+00  0.000E+00  1.09473E+03  1.681E+00  1.982E+01  8.917E-02  1.560E+00
   1    2    2     1     2    7.3080E+01  6.4665E-01   7.2434E+01  0.000E+00  0.000E+00  0.000E+00  1.08973E+03  1.675E+00  1.976E+01  1.383E-01  1.558E+00
   1    3    3     1     3    7.2434E+01  5.5165E-01   7.1882E+01  0.000E+00  0.000E+00  0.000E+00  1.08409E+03  1.669E+00  1.969E+01  1.182E-01  1.556E+00
   1    3    4     1     4    7.1882E+01  5.0813E-01   7.1374E+01  0.000E+00  0.000E+00  0.000E+00  1.07907E+03  1.663E+00  1.963E+01  1.090E-01  1.554E+00
   1    4    5     2     1    6.9374E+01  4.0746E-01   6.8966E+01  0.000E+00  0.000E+00  0.000E+00  1.07416E+03  2.224E+00  1.200E+01  7.800E-02  1.741E+00
   1    5    6     2     2    6.8966E+01  3.1301E-01   6.8653E+01  0.000E+00  0.000E+00  0.000E+00  1.06873E+03  2.217E+00  1.200E+01  6.000E-02  1.739E+00
   1    6    6     2     3    6.8653E+01  3.1265E-01   6.8341E+01  0.000E+00  0.000E+00  0.000E+00  1.06400E+03  2.211E+00  1.200E+01  6.000E-02  1.737E+00
   1    7    6     2     4    6.8341E+01  3.1228E-01   6.8028E+01  0.000E+00  0.000E+00  0.000E+00  1.05928E+03  2.205E+00  1.200E+01  6.000E-02  1.735E+00
   1    8    6     2     5    6.8028E+01  3.1192E-01   6.7717E+01  0.000E+00  0.000E+00  0.000E+00  1.05456E+03  2.199E+00  1.200E+01  6.000E-02  1.733E+00
   1    3    5     3     1    2.0000E+00  2.8252E-01   1.7175E+00  0.000E+00  0.000E+00  0.000E+00  1.07555E+03  1.909E+00  9.636E+00  7.227E-02  1.955E+00
   1    3    6     3     2    1.7175E+00  2.4905E-01   1.4684E+00  0.000E+00  0.000E+00  0.000E+00  1.07264E+03  1.727E+00  8.909E+00  6.682E-02  1.864E+00
   1    3    7     3     3    1.4684E+00  1.9718E-01   1.2712E+00  0.000E+00  0.000E+00  0.000E+00  1.06987E+03  1.555E+00  8.218E+00  5.547E-02  1.777E+00
   1    4    8     3     4    1.2712E+00  2.2567E-01   1.0456E+00  0.000E+00  0.000E+00  0.000E+00  1.06682E+03  1.364E+00  7.455E+00  6.709E-02  1.682E+00
   1    5    8     3     5    1.0456E+00  1.5790E-01   8.8768E-01  0.000E+00  0.000E+00  0.000E+00  1.06362E+03  1.164E+00  6.655E+00  4.991E-02  1.582E+00
   1    6    8     3     6    8.8768E-01  5.5980E-02   8.3170E-01  0.000E+00  0.000E+00  0.000E+00  1.06158E+03  1.036E+00  6.145E+00  1.844E-02  1.518E+00
   1    5   10     4     1    1.0000E+01  9.0919E-02   9.9091E+00  0.000E+00  0.000E+00  0.000E+00  1.07836E+03  6.368E-01  1.000E+01  2.500E-02  1.212E+00
   1    5    9     4     2    9.9091E+00  1.8158E-01   9.7275E+00  0.000E+00  0.000E+00  0.000E+00  1.07154E+03  6.315E-01  1.000E+01  5.000E-02  1.211E+00
   1    6    8     4     3    9.7275E+00  1.2689E-01   9.6006E+00  0.000E+00  0.000E+00  0.000E+00  1.06381E+03  6.256E-01  1.000E+01  3.500E-02  1.209E+00
   1    6    8     5     1    1.0432E+01  2.2686E-01   1.0205E+01  0.000E+00  0.000E+00  0.000E+00  1.05868E+03  6.790E-01  1.542E+01  6.166E-02  1.226E+00
   1    7    7     5     2    1.0205E+01  2.7894E-01   9.9265E+00  0.000E+00  0.000E+00  0.000E+00  1.05417E+03  6.732E-01  1.519E+01  7.594E-02  1.224E+00
   1    8    7     5     3    9.9265E+00  1.9221E-01   9.7343E+00  0.000E+00  0.000E+00  0.000E+00  1.04992E+03  6.676E-01  1.497E+01  5.241E-02  1.223E+00
   1    8    6     5     4    9.7343E+00  1.3577E-01   9.5985E+00  0.000E+00  0.000E+00  0.000E+00  1.04691E+03  6.637E-01  1.482E+01  3.706E-02  1.221E+00
   1    9    6     6     1    7.7315E+01  3.2406E-01   7.6991E+01  0.000E+00  0.000E+00  0.000E+00  1.04513E+03  2.401E+00  1.200E+01  6.000E-02  1.800E+00
   1   10    7     6     2    7.6991E+01  3.2369E-01   7.6667E+01  0.000E+00  0.000E+00  0.000E+00  1.04058E+03  2.395E+00  1.200E+01  6.000E-02  1.798E+00
   1   11    7     6     3    7.6667E+01  3.2333E-01   7.6344E+01  0.000E+00  0.000E+00  0.000E+00  1.03603E+03  2.389E+00  1.200E+01  6.000E-02  1.796E+00
   1   12    7     6     4    7.6344E+01  3.2297E-01   7.6021E+01  0.000E+00  0.000E+00  0.000E+00  1.03147E+03  2.383E+00  1.200E+01  6.000E-02  1.794E+00
   1   13    7     6     5    7.6021E+01  2.9374E-02   7.5992E+01  0.000E+00  0.000E+00  0.000E+00  1.02829E+03  2.379E+00  1.200E+01  2.400E-02  4.080E-01
   1   14    9     7     1    1.5000E+02  1.3427E+00   1.4866E+02  0.000E+00  0.000E+00  0.000E+00  1.03987E+03  2.288E+00  5.529E+01  5.593E-01  8.002E-01
   1   13    8     7     2    1.4866E+02  1.8467E+00   1.4681E+02  0.000E+00  0.000E+00  0.000E+00  1.03478E+03  2.279E+00  5.526E+01  6.148E-01  1.001E+00
   1   13    7     7     3    1.4681E+02  1.4660E+00   1.4534E+02  0.000E+00  0.000E+00  0.000E+00  1.02969E+03  2.270E+00  5.522E+01  5.584E-01  8.750E-01
   1   13    6     8     1    2.2134E+02  1.1269E+00   2.2021E+02  0.000E+00  0.000E+00  0.000E+00  1.02513E+03  3.256E+00  4.721E+01  4.811E-01  7.807E-01
   1   13    5     8     2    2.2021E+02  2.9314E-01   2.1992E+02  0.000E+00  0.000E+00  0.000E+00  1.01888E+03  3.252E+00  4.716E+01  4.806E-01  2.033E-01
   1   13    4     8     3    2.1992E+02 -2.2362E+00   2.2215E+02  0.000E+00  0.000E+00  0.000E+00  1.01263E+03  3.258E+00  4.724E+01  4.813E+00 -1.549E-01
   1   13    3     8     4    2.2215E+02 -3.5394E+00   2.2569E+02  0.000E+00  0.000E+00  0.000E+00  1.00640E+03  3.274E+00  4.747E+01  4.837E+00 -2.439E-01
   1   13    2     8     5    2.2569E+02 -2.4128E+00   2.2810E+02  0.000E+00  0.000E+00  0.000E+00  1.00016E+03  3.290E+00  4.770E+01  4.861E+00 -1.655E-01
   1   13    1     8     6    2.2810E+02 -1.8133E+00   2.2992E+02  0.000E+00  0.000E+00  0.000E+00  9.95176E+02  3.301E+00  4.787E+01  2.927E+00 -2.065E-01
   1    8    6     9     1    0.0000E+00  0.0000E+00   0.0000E+00  0.000E+00  0.000E+00  0.000E+00  1.07875E+03  0.000E+00  4.000E+00  0.000E+00  1.000E+00
   1    8    5     9     2    0.0000E+00  0.0000E+00   0.0000E+00  0.000E+00  0.000E+00  0.000E+00  1.07825E+03  0.000E+00  4.000E+00  0.000E+00  1.000E+00





UNSATURATED ZONE PACKAGE VOLUMETRIC BUDGET FOR  TIME STEP    30 STRESS PERIOD   40
  ------------------------------------------------------------------------------



     CUMULATIVE VOLUMES      L**3       RATES FOR THIS TIME STEP      L**3/T
     ------------------                 ------------------------

           IN:                                      IN:
           ---                                      ---
        INFILTRATION =  1646397203.8660          INFILTRATION =           4.4075

          OUT:                                     OUT:
          ----                                     ----
              UZF ET =  1499036773.9828                UZF ET =           0.7250
        UZF RECHARGE =     1868336.3129          UZF RECHARGE =           0.1114

            IN - OUT =   145492093.5703              IN - OUT =           3.5711

          STORAGE:                                 STORAGE:
          --------                                 --------
      STORAGE CHANGE =   145493542.9558        STORAGE CHANGE =           3.5711

 PERCENT DISCREPANCY IS DIFFERENCE BETWEEN IN-OUT MINUS CHANGE IN STORAGE
 DIVIDED BY THE AVERAGE OF IN AND OUT TIMES 100

 PERCENT DISCREPANCY =          -0.00     PERCENT DISCREPANCY =          -0.00






1
  VOLUMETRIC BUDGET FOR ENTIRE MODEL AT END OF TIME STEP   30, STRESS PERIOD  40
  ------------------------------------------------------------------------------

     CUMULATIVE VOLUMES      L**3       RATES FOR THIS TIME STEP      L**3/T
     ------------------                 ------------------------

           IN:                                      IN:
           ---                                      ---
               AG WELLS  =   219671824.0000                 AG WELLS  =           0.0000
      DIVERSION SEGMENTS =   974557696.0000        DIVERSION SEGMENTS =           0.0000
           GW IRRIGATION =           0.0000             GW IRRIGATION =           0.0000
           SW IRRIGATION =           0.0000             SW IRRIGATION =           0.0000
        SYSTEM LOSSES GW =           0.0000          SYSTEM LOSSES GW =           0.0000
        SYSTEM LOSSES SW =           0.0000          SYSTEM LOSSES SW =           0.0000

                TOTAL IN =  1194229504.0000                  TOTAL IN =           0.0000

          OUT:                                     OUT:
          ----                                     ----
               AG WELLS  =           0.0000                 AG WELLS  =           0.0000
      DIVERSION SEGMENTS =           0.0000        DIVERSION SEGMENTS =           0.0000
           GW IRRIGATION =   219671824.0000             GW IRRIGATION =           0.0000
           SW IRRIGATION =   974577408.0000             SW IRRIGATION =           0.0000
        SYSTEM LOSSES GW =           0.0000          SYSTEM LOSSES GW =           0.0000
        SYSTEM LOSSES SW =           0.0000          SYSTEM LOSSES SW =           0.0000

               TOTAL OUT =  1194249216.0000                 TOTAL OUT =           0.0000

                IN - OUT =      -19712.0000                  IN - OUT =           0.0000

     PERCENT DISCREPANCY =          -0.00         PERCENT DISCREPANCY =           0.00



1
  VOLUMETRIC BUDGET FOR ENTIRE MODEL AT END OF TIME STEP   30, STRESS PERIOD  40
  ------------------------------------------------------------------------------

     CUMULATIVE VOLUMES      L**3       RATES FOR THIS TIME STEP      L**3/T
     ------------------                 ------------------------

           IN:                                      IN:
           ---                                      ---
             STORAGE     =   379797664.0000               STORAGE     =           0.3786
       CONSTANT HEAD     =           0.0000         CONSTANT HEAD     =           0.0000
     HEAD DEP BOUNDS     =    29346768.0000       HEAD DEP BOUNDS     =           0.2862
      STREAM LEAKAGE     =  1225040128.0000        STREAM LEAKAGE     =          13.5815
        UZF RECHARGE     =     1868336.2500          UZF RECHARGE     =           0.1114
               GW ET     =           0.0000                 GW ET     =           0.0000
     SURFACE LEAKAGE     =           0.0000       SURFACE LEAKAGE     =           0.0000
           AG WELLS      =           0.0000             AG WELLS      =           0.0000

                TOTAL IN =  1636052864.0000                  TOTAL IN =          14.3577

          OUT:                                     OUT:
          ----                                     ----
             STORAGE     =   277260416.0000               STORAGE     =           4.0606
       CONSTANT HEAD     =           0.0000         CONSTANT HEAD     =           0.0000
     HEAD DEP BOUNDS     =    29836672.0000       HEAD DEP BOUNDS     =           0.2962
      STREAM LEAKAGE     =  1106022912.0000        STREAM LEAKAGE     =          10.0017
        UZF RECHARGE     =           0.0000          UZF RECHARGE     =           0.0000
               GW ET     =     3265349.0000                 GW ET     =           0.0000
     SURFACE LEAKAGE     =           0.0000       SURFACE LEAKAGE     =           0.0000
           AG WELLS      =   219671824.0000             AG WELLS      =           0.0000

               TOTAL OUT =  1636057216.0000                 TOTAL OUT =          14.3585

                IN - OUT =       -4352.0000                  IN - OUT =      -7.8297E-04

     PERCENT DISCREPANCY =          -0.00         PERCENT DISCREPANCY =          -0.01






         TIME SUMMARY AT END OF TIME STEP   30 IN STRESS PERIOD   40
                    SECONDS     MINUTES      HOURS       DAYS        YEARS
                    -----------------------------------------------------------
   TIME STEP LENGTH  87667.      1461.1      24.352      1.0147     2.77799E-03
 STRESS PERIOD TIME 2.63000E+06  43833.      730.56      30.440     8.33397E-02
         TOTAL TIME 1.02656E+08 1.71093E+06  28515.      1188.1      3.2530    
1
1
                            STRESS PERIOD NO.   41, LENGTH =   2630000.    
                            -----------------------------------------------

                              NUMBER OF TIME STEPS =    30

                               MULTIPLIER FOR DELT =     1.000

                            INITIAL TIME STEP SIZE =   87666.66    

 REUSING NON-PARAMETER GHB CELLS FROM LAST STRESS PERIOD

      2 GHB CELLS

 REUSING STREAM SEGMENT DATA FROM LAST STRESS PERIOD



            AREAL INFILTRATION RATE
 READING ON UNIT   19 WITH FORMAT: (10F4.0)            

            1           2           3           4           5           6           7           8           9          10
 ........................................................................................................................
   1   1.2000E-09   0.000       0.000       0.000       0.000       0.000       0.000       0.000       0.000       0.000    
   2   2.1000E-09  2.0000E-09  8.0000E-10  8.5000E-09   0.000       0.000       0.000       0.000       0.000       0.000    
   3   5.0000E-10  1.1000E-09  8.8000E-09  5.5000E-09   0.000       0.000       0.000       0.000       0.000       0.000    
   4   8.5000E-09  1.1000E-09  1.1000E-09  1.1000E-09  2.0000E-09   0.000       0.000       0.000       0.000       0.000    
   5   8.5000E-09  1.1000E-09  1.1000E-09  1.1000E-09  1.1000E-09   0.000       0.000       0.000       0.000       0.000    
   6   8.5000E-09  5.2000E-09  2.1000E-09  1.1000E-09  1.5000E-09   0.000       0.000       0.000       0.000       0.000    
   7   8.5000E-09  5.2000E-09  2.1000E-09  1.2000E-09  2.0000E-09   0.000       0.000       0.000       0.000       0.000    
   8   5.0000E-10  5.2000E-09  2.1000E-09  1.2000E-09  5.0000E-09   0.000       0.000       0.000       0.000       0.000    
   9   5.0000E-10  5.2000E-09  2.1000E-09  1.2000E-09  5.0000E-09   0.000       0.000       0.000       0.000       0.000    
  10   5.0000E-10  5.2000E-09  2.1000E-09  1.2000E-09  5.8000E-09   0.000       0.000       0.000       0.000       0.000    
  11   1.0000E-10  1.1000E-09  1.1000E-09  1.2000E-09  5.0000E-09   0.000       0.000       0.000       0.000       0.000    
  12   1.1000E-09  1.1000E-09  1.1000E-09  1.1000E-09  2.0000E-09   0.000       0.000       0.000       0.000       0.000    
  13   1.1000E-09  2.2000E-09  2.2000E-09  2.1000E-09  1.0000E-09   0.000       0.000       0.000       0.000       0.000    
  14   2.0000E-10  5.5000E-09  5.5000E-09  5.2000E-09  1.0000E-09   0.000       0.000       0.000       0.000       0.000    
  15    0.000      8.8000E-09  8.8000E-09   0.000       0.000       0.000       0.000       0.000       0.000       0.000    

                  ET RATE =  2.500000E-08

 USING ET EXTINCTION DEPTH FROM PREVIOUS STRESS PERIOD. CURRENT PERIOD IS:      41

 USING EXTINCTION WATER CONTENT FROM PREVIOUS STRESS PERIOD. CURRENT PERIOD IS:      41

 USING AIR ENTRY PRESSURE FROM PREVIOUS STRESS PERIOD. CURRENT PERIOD IS:      41

 USING ROOT PRESSURE HEAD FROM PREVIOUS STRESS PERIOD. CURRENT PERIOD IS:      41

 USING ROOT ACTIVITY FROM PREVIOUS STRESS PERIOD. CURRENT PERIOD IS:      41

 PROCESSING AG STRESS PERIOD DATA

 READING AG STRESS PERIOD DATA

 READING IRRIGATION SEGMENT

 READING IRRIGATION WELL

 READING SUPPLEMENTAL WELL

 END PROCESSING AG STRESS PERIOD DATA OPTIONS
 
 SOLVING FOR HEAD 
                                                   Max.-Head-Change                         Max.-Flux-Residual
  Residual-Control   Outer-Iter.   Inner-Iter.     Column Row Layer    Maximum-Head-Change  Column Row Layer    Maximum-Flux-Residual          L2-NORM 
          0                 1           2             2    2     1       0.4596071430E-02       2    2    1         0.2400162393E+00      0.6376870856E+00
          0                 2           2             2    2     1      -0.4470734463E-03       2    2    1        -0.2400169191E-01      0.6398943573E-01
          0                 3           1             2    2     1       0.3044403414E-04       2    2    1         0.1680118507E-02      0.4579229982E-02

    ------------------------------------------------
       NWT REQUIRED            3 OUTER ITERATIONS 
       AND A TOTAL OF          5 INNER ITERATIONS.
    ------------------------------------------------

 NO OUTPUT CONTROL FOR STRESS PERIOD   41   TIME STEP    1
 
 SOLVING FOR HEAD 
                                                   Max.-Head-Change                         Max.-Flux-Residual
  Residual-Control   Outer-Iter.   Inner-Iter.     Column Row Layer    Maximum-Head-Change  Column Row Layer    Maximum-Flux-Residual          L2-NORM 
          0                 1           2             2    2     1       0.4566557360E-02       2    2    1         0.2384632829E+00      0.6283423222E+00
          0                 2           2             2    2     1      -0.4442025143E-03       2    2    1        -0.2384639507E-01      0.6278582744E-01
          0                 3           1             2    2     1       0.3024853492E-04       2    2    1         0.1669247750E-02      0.4395687215E-02

    ------------------------------------------------
       NWT REQUIRED            3 OUTER ITERATIONS 
       AND A TOTAL OF          5 INNER ITERATIONS.
    ------------------------------------------------

 NO OUTPUT CONTROL FOR STRESS PERIOD   41   TIME STEP    2
 
 SOLVING FOR HEAD 
                                                   Max.-Head-Change                         Max.-Flux-Residual
  Residual-Control   Outer-Iter.   Inner-Iter.     Column Row Layer    Maximum-Head-Change  Column Row Layer    Maximum-Flux-Residual          L2-NORM 
          0                 1           2             2    2     1       0.4537386297E-02       2    2    1         0.2369284186E+00      0.6215418163E+00
          0                 2           2             2    2     1      -0.4413649476E-03       2    2    1        -0.2369290747E-01      0.6209031485E-01
          0                 3           1             2    2     1       0.3005530729E-04       2    2    1         0.1658503627E-02      0.4340370737E-02

    ------------------------------------------------
       NWT REQUIRED            3 OUTER ITERATIONS 
       AND A TOTAL OF          5 INNER ITERATIONS.
    ------------------------------------------------

 NO OUTPUT CONTROL FOR STRESS PERIOD   41   TIME STEP    3
 
 SOLVING FOR HEAD 
                                                   Max.-Head-Change                         Max.-Flux-Residual
  Residual-Control   Outer-Iter.   Inner-Iter.     Column Row Layer    Maximum-Head-Change  Column Row Layer    Maximum-Flux-Residual          L2-NORM 
          0                 1           2             2    2     1       0.4386676144E-02       2    2    1         0.2290392315E+00      0.6002641553E+00
          0                 2           2             2    2     1      -0.4267048894E-03       2    2    1        -0.2290398415E-01      0.5992701971E-01
          0                 3           1             2    2     1       0.2905701185E-04       2    2    1         0.1603278999E-02      0.4190791336E-02

    ------------------------------------------------
       NWT REQUIRED            3 OUTER ITERATIONS 
       AND A TOTAL OF          5 INNER ITERATIONS.
    ------------------------------------------------

 NO OUTPUT CONTROL FOR STRESS PERIOD   41   TIME STEP    4
 
 SOLVING FOR HEAD 
                                                   Max.-Head-Change                         Max.-Flux-Residual
  Residual-Control   Outer-Iter.   Inner-Iter.     Column Row Layer    Maximum-Head-Change  Column Row Layer    Maximum-Flux-Residual          L2-NORM 
          0                 1           2             3   13     1      -0.8111363526E-02       3   13    1        -0.4720799661E+00      0.8468853213E+00
          0                 2           2             3   13     1       0.7710412080E-03       3   13    1         0.4614164873E-01      0.8303302592E-01
          0                 3           1             3   13     1      -0.5083752776E-04       3   13    1        -0.3127869541E-02      0.5680042124E-02

    ------------------------------------------------
       NWT REQUIRED            3 OUTER ITERATIONS 
       AND A TOTAL OF          5 INNER ITERATIONS.
    ------------------------------------------------

 NO OUTPUT CONTROL FOR STRESS PERIOD   41   TIME STEP    5
 
 SOLVING FOR HEAD 
                                                   Max.-Head-Change                         Max.-Flux-Residual
  Residual-Control   Outer-Iter.   Inner-Iter.     Column Row Layer    Maximum-Head-Change  Column Row Layer    Maximum-Flux-Residual          L2-NORM 
          0                 1           2             3   13     1      -0.7253750228E-02       4   13    1        -0.4221986658E+00      0.7945746121E+00
          0                 2           2             4   13     1       0.6915441369E-03       4   13    1         0.4187360809E-01      0.7816384505E-01
          0                 3           1             4   13     1      -0.4655132782E-04       4   13    1        -0.2898249051E-02      0.5353935751E-02

    ------------------------------------------------
       NWT REQUIRED            3 OUTER ITERATIONS 
       AND A TOTAL OF          5 INNER ITERATIONS.
    ------------------------------------------------

 NO OUTPUT CONTROL FOR STRESS PERIOD   41   TIME STEP    6
 
 SOLVING FOR HEAD 
                                                   Max.-Head-Change                         Max.-Flux-Residual
  Residual-Control   Outer-Iter.   Inner-Iter.     Column Row Layer    Maximum-Head-Change  Column Row Layer    Maximum-Flux-Residual          L2-NORM 
          0                 1           2             3   13     1      -0.6486864124E-02       3   13    1        -0.3773707677E+00      0.7375192519E+00
          0                 2           2             3   13     1       0.6164022420E-03       4   13    1         0.3695341062E-01      0.7262137875E-01
          0                 3           1             4   13     1      -0.4107987442E-04       4   13    1        -0.2557516909E-02      0.4980329167E-02

    ------------------------------------------------
       NWT REQUIRED            3 OUTER ITERATIONS 
       AND A TOTAL OF          5 INNER ITERATIONS.
    ------------------------------------------------

 NO OUTPUT CONTROL FOR STRESS PERIOD   41   TIME STEP    7
 
 SOLVING FOR HEAD 
                                                   Max.-Head-Change                         Max.-Flux-Residual
  Residual-Control   Outer-Iter.   Inner-Iter.     Column Row Layer    Maximum-Head-Change  Column Row Layer    Maximum-Flux-Residual          L2-NORM 
          0                 1           2             3   13     1      -0.5800793003E-02       3   13    1        -0.3374712607E+00      0.6884871435E+00
          0                 2           2             3   13     1       0.5513085086E-03       3   13    1         0.3297618631E-01      0.6786545885E-01
          0                 3           1             3   13     1      -0.3632971465E-04       4   13    1        -0.2256039199E-02      0.4659544752E-02

    ------------------------------------------------
       NWT REQUIRED            3 OUTER ITERATIONS 
       AND A TOTAL OF          5 INNER ITERATIONS.
    ------------------------------------------------

 NO OUTPUT CONTROL FOR STRESS PERIOD   41   TIME STEP    8
 
 SOLVING FOR HEAD 
                                                   Max.-Head-Change                         Max.-Flux-Residual
  Residual-Control   Outer-Iter.   Inner-Iter.     Column Row Layer    Maximum-Head-Change  Column Row Layer    Maximum-Flux-Residual          L2-NORM 
          0                 1           2             3   13     1      -0.5186999814E-02       3   13    1        -0.3017752464E+00      0.6465254492E+00
          0                 2           2             3   13     1       0.4931758887E-03       3   13    1         0.2950036827E-01      0.6380671146E-01
          0                 3           1             3   13     1      -0.3259540057E-04       3   13    1        -0.2004659189E-02      0.4391084666E-02

    ------------------------------------------------
       NWT REQUIRED            3 OUTER ITERATIONS 
       AND A TOTAL OF          5 INNER ITERATIONS.
    ------------------------------------------------

 NO OUTPUT CONTROL FOR STRESS PERIOD   41   TIME STEP    9
 
 SOLVING FOR HEAD 
                                                   Max.-Head-Change                         Max.-Flux-Residual
  Residual-Control   Outer-Iter.   Inner-Iter.     Column Row Layer    Maximum-Head-Change  Column Row Layer    Maximum-Flux-Residual          L2-NORM 
          0                 1           2             3   13     1      -0.4637778999E-02       3   13    1        -0.2698347068E+00      0.6107429066E+00
          0                 2           2             3   13     1       0.4409693453E-03       3   13    1         0.2637877832E-01      0.6034502141E-01
          0                 3           1             3   13     1      -0.2908138175E-04       3   13    1        -0.1788575117E-02      0.4157528496E-02

    ------------------------------------------------
       NWT REQUIRED            3 OUTER ITERATIONS 
       AND A TOTAL OF          5 INNER ITERATIONS.
    ------------------------------------------------

 NO OUTPUT CONTROL FOR STRESS PERIOD   41   TIME STEP   10
 
 SOLVING FOR HEAD 
                                                   Max.-Head-Change                         Max.-Flux-Residual
  Residual-Control   Outer-Iter.   Inner-Iter.     Column Row Layer    Maximum-Head-Change  Column Row Layer    Maximum-Flux-Residual          L2-NORM 
          0                 1           2             3   13     1      -0.4146423710E-02       3   13    1        -0.2412597656E+00      0.5803633800E+00
          0                 2           2             3   13     1       0.3943367749E-03       3   13    1         0.2359055206E-01      0.5741340611E-01
          0                 3           1             3   13     1      -0.2602083329E-04       3   13    1        -0.1600451967E-02      0.3961948293E-02

    ------------------------------------------------
       NWT REQUIRED            3 OUTER ITERATIONS 
       AND A TOTAL OF          5 INNER ITERATIONS.
    ------------------------------------------------

 NO OUTPUT CONTROL FOR STRESS PERIOD   41   TIME STEP   11
 
 SOLVING FOR HEAD 
                                                   Max.-Head-Change                         Max.-Flux-Residual
  Residual-Control   Outer-Iter.   Inner-Iter.     Column Row Layer    Maximum-Head-Change  Column Row Layer    Maximum-Flux-Residual          L2-NORM 
          0                 1           2             3   13     1      -0.3706850557E-02       3   13    1        -0.2156965992E+00      0.5546578790E+00
          0                 2           2             3   13     1       0.3526177709E-03       3   13    1         0.2109615208E-01      0.5493657313E-01
          0                 3           1             3   13     1      -0.2325675017E-04       3   13    1        -0.1430543778E-02      0.3796114732E-02

    ------------------------------------------------
       NWT REQUIRED            3 OUTER ITERATIONS 
       AND A TOTAL OF          5 INNER ITERATIONS.
    ------------------------------------------------

 NO OUTPUT CONTROL FOR STRESS PERIOD   41   TIME STEP   12
 
 SOLVING FOR HEAD 
                                                   Max.-Head-Change                         Max.-Flux-Residual
  Residual-Control   Outer-Iter.   Inner-Iter.     Column Row Layer    Maximum-Head-Change  Column Row Layer    Maximum-Flux-Residual          L2-NORM 
          0                 1           2             3   13     1      -0.3313593127E-02       3   13    1        -0.1928275498E+00      0.5329648325E+00
          0                 2           2             1    1     1      -0.3156338674E-03       3   13    1         0.1886375214E-01      0.5284864352E-01
          0                 3           1             1    1     1       0.2149349359E-04       3   13    1        -0.1280594657E-02      0.3658525315E-02

    ------------------------------------------------
       NWT REQUIRED            3 OUTER ITERATIONS 
       AND A TOTAL OF          5 INNER ITERATIONS.
    ------------------------------------------------

 NO OUTPUT CONTROL FOR STRESS PERIOD   41   TIME STEP   13
 
 SOLVING FOR HEAD 
                                                   Max.-Head-Change                         Max.-Flux-Residual
  Residual-Control   Outer-Iter.   Inner-Iter.     Column Row Layer    Maximum-Head-Change  Column Row Layer    Maximum-Flux-Residual          L2-NORM 
          0                 1           2             1    1     1       0.3241679130E-02       3   13    1        -0.1723630352E+00      0.5147182284E+00
          0                 2           2             1    1     1      -0.3153272611E-03       3   13    1         0.1686609248E-01      0.5109464211E-01
          0                 3           1             1    1     1       0.2147261522E-04       1    1    1         0.1177909164E-02      0.3541856055E-02

    ------------------------------------------------
       NWT REQUIRED            3 OUTER ITERATIONS 
       AND A TOTAL OF          5 INNER ITERATIONS.
    ------------------------------------------------

 NO OUTPUT CONTROL FOR STRESS PERIOD   41   TIME STEP   14
 
 SOLVING FOR HEAD 
                                                   Max.-Head-Change                         Max.-Flux-Residual
  Residual-Control   Outer-Iter.   Inner-Iter.     Column Row Layer    Maximum-Head-Change  Column Row Layer    Maximum-Flux-Residual          L2-NORM 
          0                 1           2             1    1     1       0.3238514574E-02       1    1    1         0.1681078622E+00      0.4993887287E+00
          0                 2           2             1    1     1      -0.3150194348E-03       1    1    1        -0.1681080455E-01      0.4962165491E-01
          0                 3           1             1    1     1       0.2145165306E-04       1    1    1         0.1176756655E-02      0.3442887978E-02

    ------------------------------------------------
       NWT REQUIRED            3 OUTER ITERATIONS 
       AND A TOTAL OF          5 INNER ITERATIONS.
    ------------------------------------------------

 NO OUTPUT CONTROL FOR STRESS PERIOD   41   TIME STEP   15
 
 SOLVING FOR HEAD 
                                                   Max.-Head-Change                         Max.-Flux-Residual
  Residual-Control   Outer-Iter.   Inner-Iter.     Column Row Layer    Maximum-Head-Change  Column Row Layer    Maximum-Flux-Residual          L2-NORM 
          0                 1           2             1    1     1       0.3235360884E-02       1    1    1         0.1679437848E+00      0.4865244649E+00
          0                 2           2             1    1     1      -0.3147126655E-03       1    1    1        -0.1679439674E-01      0.4838915102E-01
          0                 3           1             1    1     1       0.2143076286E-04       1    1    1         0.1175608090E-02      0.3363000226E-02

    ------------------------------------------------
       NWT REQUIRED            3 OUTER ITERATIONS 
       AND A TOTAL OF          5 INNER ITERATIONS.
    ------------------------------------------------

 NO OUTPUT CONTROL FOR STRESS PERIOD   41   TIME STEP   16
 
 SOLVING FOR HEAD 
                                                   Max.-Head-Change                         Max.-Flux-Residual
  Residual-Control   Outer-Iter.   Inner-Iter.     Column Row Layer    Maximum-Head-Change  Column Row Layer    Maximum-Flux-Residual          L2-NORM 
          0                 1           2             1    1     1       0.3232217978E-02       1    1    1         0.1677802709E+00      0.4757286416E+00
          0                 2           2             1    1     1      -0.3144069453E-03       1    1    1        -0.1677804527E-01      0.4735369096E-01
          0                 3           1             1    1     1       0.2140994484E-04       1    1    1         0.1174463507E-02      0.3294721942E-02

    ------------------------------------------------
       NWT REQUIRED            3 OUTER ITERATIONS 
       AND A TOTAL OF          5 INNER ITERATIONS.
    ------------------------------------------------

 NO OUTPUT CONTROL FOR STRESS PERIOD   41   TIME STEP   17
 
 SOLVING FOR HEAD 
                                                   Max.-Head-Change                         Max.-Flux-Residual
  Residual-Control   Outer-Iter.   Inner-Iter.     Column Row Layer    Maximum-Head-Change  Column Row Layer    Maximum-Flux-Residual          L2-NORM 
          0                 1           2             1    1     1       0.3229085780E-02       1    1    1         0.1676173161E+00      0.4666636901E+00
          0                 2           2             1    1     1      -0.3141022669E-03       1    1    1        -0.1676174971E-01      0.4648461165E-01
          0                 3           1             1    1     1       0.2138919759E-04       1    1    1         0.1173322821E-02      0.3237298342E-02

    ------------------------------------------------
       NWT REQUIRED            3 OUTER ITERATIONS 
       AND A TOTAL OF          5 INNER ITERATIONS.
    ------------------------------------------------

 NO OUTPUT CONTROL FOR STRESS PERIOD   41   TIME STEP   18
 
 SOLVING FOR HEAD 
                                                   Max.-Head-Change                         Max.-Flux-Residual
  Residual-Control   Outer-Iter.   Inner-Iter.     Column Row Layer    Maximum-Head-Change  Column Row Layer    Maximum-Flux-Residual          L2-NORM 
          0                 1           2             1    1     1       0.3225964280E-02       1    1    1         0.1674549165E+00      0.4590392843E+00
          0                 2           2             1    1     1      -0.3137986290E-03       1    1    1        -0.1674550968E-01      0.4575361377E-01
          0                 3           1             1    1     1       0.2136852087E-04       1    1    1         0.1172186022E-02      0.3188734738E-02

    ------------------------------------------------
       NWT REQUIRED            3 OUTER ITERATIONS 
       AND A TOTAL OF          5 INNER ITERATIONS.
    ------------------------------------------------

 NO OUTPUT CONTROL FOR STRESS PERIOD   41   TIME STEP   19
 
 SOLVING FOR HEAD 
                                                   Max.-Head-Change                         Max.-Flux-Residual
  Residual-Control   Outer-Iter.   Inner-Iter.     Column Row Layer    Maximum-Head-Change  Column Row Layer    Maximum-Flux-Residual          L2-NORM 
          0                 1           2             1    1     1       0.3222853394E-02       1    1    1         0.1672930716E+00      0.4526120860E+00
          0                 2           2             1    1     1      -0.3134960234E-03       1    1    1        -0.1672932511E-01      0.4513700539E-01
          0                 3           1             1    1     1       0.2134791444E-04       1    1    1         0.1171053105E-02      0.3148265637E-02

    ------------------------------------------------
       NWT REQUIRED            3 OUTER ITERATIONS 
       AND A TOTAL OF          5 INNER ITERATIONS.
    ------------------------------------------------

 NO OUTPUT CONTROL FOR STRESS PERIOD   41   TIME STEP   20
 
 SOLVING FOR HEAD 
                                                   Max.-Head-Change                         Max.-Flux-Residual
  Residual-Control   Outer-Iter.   Inner-Iter.     Column Row Layer    Maximum-Head-Change  Column Row Layer    Maximum-Flux-Residual          L2-NORM 
          0                 1           2             1    1     1       0.3219753067E-02       1    1    1         0.1671317770E+00      0.4471844395E+00
          0                 2           2             1    1     1      -0.3131944444E-03       1    1    1        -0.1671319557E-01      0.4461644424E-01
          0                 3           1             1    1     1       0.2132737782E-04       1    1    1         0.1169924020E-02      0.3114142020E-02

    ------------------------------------------------
       NWT REQUIRED            3 OUTER ITERATIONS 
       AND A TOTAL OF          5 INNER ITERATIONS.
    ------------------------------------------------

 NO OUTPUT CONTROL FOR STRESS PERIOD   41   TIME STEP   21
 
 SOLVING FOR HEAD 
                                                   Max.-Head-Change                         Max.-Flux-Residual
  Residual-Control   Outer-Iter.   Inner-Iter.     Column Row Layer    Maximum-Head-Change  Column Row Layer    Maximum-Flux-Residual          L2-NORM 
          0                 1           2             1    1     1       0.3216663253E-02       1    1    1         0.1669710299E+00      0.4425577893E+00
          0                 2           2             1    1     1      -0.3128938890E-03       1    1    1        -0.1669712080E-01      0.4417179853E-01
          0                 3           1             1    1     1       0.2130691127E-04       1    1    1         0.1168798789E-02      0.3084173230E-02

    ------------------------------------------------
       NWT REQUIRED            3 OUTER ITERATIONS 
       AND A TOTAL OF          5 INNER ITERATIONS.
    ------------------------------------------------

 NO OUTPUT CONTROL FOR STRESS PERIOD   41   TIME STEP   22
 
 SOLVING FOR HEAD 
                                                   Max.-Head-Change                         Max.-Flux-Residual
  Residual-Control   Outer-Iter.   Inner-Iter.     Column Row Layer    Maximum-Head-Change  Column Row Layer    Maximum-Flux-Residual          L2-NORM 
          0                 1           2             1    1     1       0.3213583888E-02       1    1    1         0.1668108278E+00      0.4386110734E+00
          0                 2           2             1    1     1      -0.3125943499E-03       1    1    1        -0.1668110052E-01      0.4379200687E-01
          0                 3           1             1    1     1       0.2128651382E-04       1    1    1         0.1167677376E-02      0.3058827969E-02

    ------------------------------------------------
       NWT REQUIRED            3 OUTER ITERATIONS 
       AND A TOTAL OF          5 INNER ITERATIONS.
    ------------------------------------------------

 NO OUTPUT CONTROL FOR STRESS PERIOD   41   TIME STEP   23
 
 SOLVING FOR HEAD 
                                                   Max.-Head-Change                         Max.-Flux-Residual
  Residual-Control   Outer-Iter.   Inner-Iter.     Column Row Layer    Maximum-Head-Change  Column Row Layer    Maximum-Flux-Residual          L2-NORM 
          0                 1           2             1    1     1       0.3210514946E-02       1    1    1         0.1666511676E+00      0.4352177700E+00
          0                 2           2             1    1     1      -0.3122958242E-03       1    1    1        -0.1666513443E-01      0.4346538529E-01
          0                 3           1             1    1     1       0.2126618500E-04       1    1    1         0.1166559737E-02      0.3037499540E-02

    ------------------------------------------------
       NWT REQUIRED            3 OUTER ITERATIONS 
       AND A TOTAL OF          5 INNER ITERATIONS.
    ------------------------------------------------

 NO OUTPUT CONTROL FOR STRESS PERIOD   41   TIME STEP   24
 
 SOLVING FOR HEAD 
                                                   Max.-Head-Change                         Max.-Flux-Residual
  Residual-Control   Outer-Iter.   Inner-Iter.     Column Row Layer    Maximum-Head-Change  Column Row Layer    Maximum-Flux-Residual          L2-NORM 
          0                 1           2             1    1     1       0.3207456346E-02       1    1    1         0.1664920478E+00      0.4322876700E+00
          0                 2           2             1    1     1      -0.3119983048E-03       1    1    1        -0.1664922237E-01      0.4318274328E-01
          0                 3           1             1    1     1       0.2124592530E-04       1    1    1         0.1165445903E-02      0.3018733115E-02

    ------------------------------------------------
       NWT REQUIRED            3 OUTER ITERATIONS 
       AND A TOTAL OF          5 INNER ITERATIONS.
    ------------------------------------------------

 NO OUTPUT CONTROL FOR STRESS PERIOD   41   TIME STEP   25
 
 SOLVING FOR HEAD 
                                                   Max.-Head-Change                         Max.-Flux-Residual
  Residual-Control   Outer-Iter.   Inner-Iter.     Column Row Layer    Maximum-Head-Change  Column Row Layer    Maximum-Flux-Residual          L2-NORM 
          0                 1           2             1    1     1       0.3204408044E-02       1    1    1         0.1663334641E+00      0.4297300940E+00
          0                 2           2             1    1     1      -0.3117017868E-03       1    1    1        -0.1663336393E-01      0.4293534042E-01
          0                 3           1             1    1     1       0.2122573352E-04       1    1    1         0.1164335807E-02      0.3001939510E-02

    ------------------------------------------------
       NWT REQUIRED            3 OUTER ITERATIONS 
       AND A TOTAL OF          5 INNER ITERATIONS.
    ------------------------------------------------

 NO OUTPUT CONTROL FOR STRESS PERIOD   41   TIME STEP   26
 
 SOLVING FOR HEAD 
                                                   Max.-Head-Change                         Max.-Flux-Residual
  Residual-Control   Outer-Iter.   Inner-Iter.     Column Row Layer    Maximum-Head-Change  Column Row Layer    Maximum-Flux-Residual          L2-NORM 
          0                 1           2             1    1     1       0.3040354557E-02       1    1    1         0.1578110206E+00      0.4362997378E+00
          0                 2           2             1    1     1      -0.2957438202E-03       1    1    1        -0.1578111719E-01      0.4347475585E-01
          0                 3           1             1    1     1       0.2013905576E-04       1    1    1         0.1104678545E-02      0.3028728619E-02

    ------------------------------------------------
       NWT REQUIRED            3 OUTER ITERATIONS 
       AND A TOTAL OF          5 INNER ITERATIONS.
    ------------------------------------------------

 NO OUTPUT CONTROL FOR STRESS PERIOD   41   TIME STEP   27
 
 SOLVING FOR HEAD 
                                                   Max.-Head-Change                         Max.-Flux-Residual
  Residual-Control   Outer-Iter.   Inner-Iter.     Column Row Layer    Maximum-Head-Change  Column Row Layer    Maximum-Flux-Residual          L2-NORM 
          0                 1           2             2   13     1      -0.3924289345E-02       2   13    1        -0.2216264768E+00      0.5387376113E+00
          0                 2           2             2   13     1       0.3661591606E-03       2   13    1         0.2125706913E-01      0.5309217413E-01
          0                 3           1             4   13     1      -0.2365431133E-04       4   13    1        -0.1467343137E-02      0.3643881556E-02

    ------------------------------------------------
       NWT REQUIRED            3 OUTER ITERATIONS 
       AND A TOTAL OF          5 INNER ITERATIONS.
    ------------------------------------------------

 NO OUTPUT CONTROL FOR STRESS PERIOD   41   TIME STEP   28
 
 SOLVING FOR HEAD 
                                                   Max.-Head-Change                         Max.-Flux-Residual
  Residual-Control   Outer-Iter.   Inner-Iter.     Column Row Layer    Maximum-Head-Change  Column Row Layer    Maximum-Flux-Residual          L2-NORM 
          0                 1           2             2   13     1      -0.3619458537E-02       2   13    1        -0.2044189887E+00      0.5129035415E+00
          0                 2           2             2   13     1       0.3380525957E-03       2   13    1         0.1962621074E-01      0.5061079118E-01
          0                 3           1             2   13     1      -0.2172972049E-04       4   13    1        -0.1300407372E-02      0.3480121633E-02

    ------------------------------------------------
       NWT REQUIRED            3 OUTER ITERATIONS 
       AND A TOTAL OF          5 INNER ITERATIONS.
    ------------------------------------------------

 NO OUTPUT CONTROL FOR STRESS PERIOD   41   TIME STEP   29
 
 SOLVING FOR HEAD 
                                                   Max.-Head-Change                         Max.-Flux-Residual
  Residual-Control   Outer-Iter.   Inner-Iter.     Column Row Layer    Maximum-Head-Change  Column Row Layer    Maximum-Flux-Residual          L2-NORM 
          0                 1           2             2   13     1      -0.3337896027E-02       2   13    1        -0.1885228486E+00      0.4906615604E+00
          0                 2           2             2   13     1       0.3120753282E-03       2   13    1         0.1811865778E-01      0.4847977472E-01
          0                 3           1             2   13     1      -0.2008619928E-04       2   13    1        -0.1198623188E-02      0.3340135051E-02

    ------------------------------------------------
       NWT REQUIRED            3 OUTER ITERATIONS 
       AND A TOTAL OF          5 INNER ITERATIONS.
    ------------------------------------------------

 NO OUTPUT CONTROL FOR STRESS PERIOD   41   TIME STEP   30



 STREAM LISTING     PERIOD     41   STEP       30

 LAYER ROW COL. STREAM  RCH.  FLOW INTO     FLOW TO   FLOW OUT OF   OVRLND.     DIRECT     STREAM       STREAM     STREAM     STREAM   STREAMBED  STREAMBED
                SEG.NO.  NO.  STRM. RCH.    AQUIFER    STRM. RCH.    RUNOFF     PRECIP       ET          HEAD       DEPTH      WIDTH   CONDCTNC.   GRADIENT

   1    1    1     1     1    4.7249E+01  3.2762E-01   4.6921E+01  0.000E+00  0.000E+00  0.000E+00  1.09443E+03  1.381E+00  1.662E+01  7.477E-02  1.460E+00
   1    2    2     1     2    4.6921E+01  5.0759E-01   4.6413E+01  0.000E+00  0.000E+00  0.000E+00  1.08944E+03  1.379E+00  1.656E+01  1.159E-01  1.460E+00
   1    3    3     1     3    4.6413E+01  4.3309E-01   4.5980E+01  0.000E+00  0.000E+00  0.000E+00  1.08379E+03  1.376E+00  1.650E+01  9.898E-02  1.459E+00
   1    3    4     1     4    4.5980E+01  3.9899E-01   4.5581E+01  0.000E+00  0.000E+00  0.000E+00  1.07878E+03  1.373E+00  1.644E+01  9.124E-02  1.458E+00
   1    4    5     2     1    4.3581E+01  3.6514E-01   4.3216E+01  0.000E+00  0.000E+00  0.000E+00  1.07362E+03  1.681E+00  1.200E+01  7.800E-02  1.560E+00
   1    5    6     2     2    4.3216E+01  2.8042E-01   4.2936E+01  0.000E+00  0.000E+00  0.000E+00  1.06818E+03  1.674E+00  1.200E+01  6.000E-02  1.558E+00
   1    6    6     2     3    4.2936E+01  2.8003E-01   4.2656E+01  0.000E+00  0.000E+00  0.000E+00  1.06346E+03  1.667E+00  1.200E+01  6.000E-02  1.556E+00
   1    7    6     2     4    4.2656E+01  2.7964E-01   4.2376E+01  0.000E+00  0.000E+00  0.000E+00  1.05874E+03  1.661E+00  1.200E+01  6.000E-02  1.554E+00
   1    8    6     2     5    4.2376E+01  2.7924E-01   4.2097E+01  0.000E+00  0.000E+00  0.000E+00  1.05401E+03  1.654E+00  1.200E+01  6.000E-02  1.551E+00
   1    3    5     3     1    2.0000E+00  2.8252E-01   1.7175E+00  0.000E+00  0.000E+00  0.000E+00  1.07555E+03  1.909E+00  9.636E+00  7.227E-02  1.955E+00
   1    3    6     3     2    1.7175E+00  2.4905E-01   1.4684E+00  0.000E+00  0.000E+00  0.000E+00  1.07264E+03  1.727E+00  8.909E+00  6.682E-02  1.864E+00
   1    3    7     3     3    1.4684E+00  1.9718E-01   1.2712E+00  0.000E+00  0.000E+00  0.000E+00  1.06987E+03  1.555E+00  8.218E+00  5.547E-02  1.777E+00
   1    4    8     3     4    1.2712E+00  2.2567E-01   1.0456E+00  0.000E+00  0.000E+00  0.000E+00  1.06682E+03  1.364E+00  7.455E+00  6.709E-02  1.682E+00
   1    5    8     3     5    1.0456E+00  1.5790E-01   8.8768E-01  0.000E+00  0.000E+00  0.000E+00  1.06362E+03  1.164E+00  6.655E+00  4.991E-02  1.582E+00
   1    6    8     3     6    8.8768E-01  5.5980E-02   8.3170E-01  0.000E+00  0.000E+00  0.000E+00  1.06158E+03  1.036E+00  6.145E+00  1.844E-02  1.518E+00
   1    5   10     4     1    1.0000E+01  9.0919E-02   9.9091E+00  0.000E+00  0.000E+00  0.000E+00  1.07836E+03  6.368E-01  1.000E+01  2.500E-02  1.212E+00
   1    5    9     4     2    9.9091E+00  1.8158E-01   9.7275E+00  0.000E+00  0.000E+00  0.000E+00  1.07154E+03  6.315E-01  1.000E+01  5.000E-02  1.211E+00
   1    6    8     4     3    9.7275E+00  1.2689E-01   9.6006E+00  0.000E+00  0.000E+00  0.000E+00  1.06381E+03  6.256E-01  1.000E+01  3.500E-02  1.209E+00
   1    6    8     5     1    1.0432E+01  2.2686E-01   1.0205E+01  0.000E+00  0.000E+00  0.000E+00  1.05868E+03  6.790E-01  1.542E+01  6.166E-02  1.226E+00
   1    7    7     5     2    1.0205E+01  2.7894E-01   9.9265E+00  0.000E+00  0.000E+00  0.000E+00  1.05417E+03  6.732E-01  1.519E+01  7.594E-02  1.224E+00
   1    8    7     5     3    9.9265E+00  1.9221E-01   9.7343E+00  0.000E+00  0.000E+00  0.000E+00  1.04992E+03  6.676E-01  1.497E+01  5.241E-02  1.223E+00
   1    8    6     5     4    9.7343E+00  1.3577E-01   9.5985E+00  0.000E+00  0.000E+00  0.000E+00  1.04691E+03  6.637E-01  1.482E+01  3.706E-02  1.221E+00
   1    9    6     6     1    5.1695E+01  2.9310E-01   5.1402E+01  0.000E+00  0.000E+00  0.000E+00  1.04461E+03  1.885E+00  1.200E+01  6.000E-02  1.628E+00
   1   10    7     6     2    5.1402E+01  2.9271E-01   5.1110E+01  0.000E+00  0.000E+00  0.000E+00  1.04006E+03  1.879E+00  1.200E+01  6.000E-02  1.626E+00
   1   11    7     6     3    5.1110E+01  2.9233E-01   5.0817E+01  0.000E+00  0.000E+00  0.000E+00  1.03551E+03  1.872E+00  1.200E+01  6.000E-02  1.624E+00
   1   12    7     6     4    5.0817E+01  2.9194E-01   5.0525E+01  0.000E+00  0.000E+00  0.000E+00  1.03096E+03  1.866E+00  1.200E+01  6.000E-02  1.622E+00
   1   13    7     6     5    5.0525E+01  1.6577E-02   5.0509E+01  0.000E+00  0.000E+00  0.000E+00  1.02777E+03  1.862E+00  1.200E+01  2.400E-02  2.302E-01
   1   14    9     7     1    1.5000E+02  1.3431E+00   1.4866E+02  0.000E+00  0.000E+00  0.000E+00  1.03987E+03  2.288E+00  5.529E+01  5.593E-01  8.005E-01
   1   13    8     7     2    1.4866E+02  1.8446E+00   1.4681E+02  0.000E+00  0.000E+00  0.000E+00  1.03478E+03  2.279E+00  5.526E+01  6.148E-01  1.000E+00
   1   13    7     7     3    1.4681E+02  1.4571E+00   1.4536E+02  0.000E+00  0.000E+00  0.000E+00  1.02969E+03  2.270E+00  5.522E+01  5.584E-01  8.697E-01
   1   13    6     8     1    1.9586E+02  1.0012E+00   1.9486E+02  0.000E+00  0.000E+00  0.000E+00  1.02499E+03  3.110E+00  4.510E+01  4.596E-01  7.262E-01
   1   13    5     8     2    1.9486E+02  2.0501E-01   1.9466E+02  0.000E+00  0.000E+00  0.000E+00  1.01873E+03  3.107E+00  4.505E+01  4.590E-01  1.489E-01
   1   13    4     8     3    1.9466E+02 -2.4915E+00   1.9715E+02  0.000E+00  0.000E+00  0.000E+00  1.01249E+03  3.113E+00  4.515E+01  4.600E+00 -1.805E-01
   1   13    3     8     4    1.9715E+02 -3.7062E+00   2.0086E+02  0.000E+00  0.000E+00  0.000E+00  1.00626E+03  3.132E+00  4.541E+01  4.628E+00 -2.670E-01
   1   13    2     8     5    2.0086E+02 -2.7071E+00   2.0356E+02  0.000E+00  0.000E+00  0.000E+00  1.00003E+03  3.151E+00  4.568E+01  4.655E+00 -1.938E-01
   1   13    1     8     6    2.0356E+02 -2.0771E+00   2.0564E+02  0.000E+00  0.000E+00  0.000E+00  9.95040E+02  3.165E+00  4.589E+01  2.806E+00 -2.468E-01
   1    8    6     9     1    0.0000E+00  0.0000E+00   0.0000E+00  0.000E+00  0.000E+00  0.000E+00  1.07875E+03  0.000E+00  4.000E+00  0.000E+00  1.000E+00
   1    8    5     9     2    0.0000E+00  0.0000E+00   0.0000E+00  0.000E+00  0.000E+00  0.000E+00  1.07825E+03  0.000E+00  4.000E+00  0.000E+00  1.000E+00





UNSATURATED ZONE PACKAGE VOLUMETRIC BUDGET FOR  TIME STEP    30 STRESS PERIOD   41
  ------------------------------------------------------------------------------



     CUMULATIVE VOLUMES      L**3       RATES FOR THIS TIME STEP      L**3/T
     ------------------                 ------------------------

           IN:                                      IN:
           ---                                      ---
        INFILTRATION =  1657988928.4241          INFILTRATION =           4.4075

          OUT:                                     OUT:
          ----                                     ----
              UZF ET =  1524514902.3312                UZF ET =           4.4075
        UZF RECHARGE =     1883440.3295          UZF RECHARGE =       0.0000E+00

            IN - OUT =   131590585.7634              IN - OUT =       0.0000E+00

          STORAGE:                                 STORAGE:
          --------                                 --------
      STORAGE CHANGE =   131592423.4671        STORAGE CHANGE =       6.4571E-14

 PERCENT DISCREPANCY IS DIFFERENCE BETWEEN IN-OUT MINUS CHANGE IN STORAGE
 DIVIDED BY THE AVERAGE OF IN AND OUT TIMES 100

 PERCENT DISCREPANCY =          -0.00     PERCENT DISCREPANCY =           0.00






1
  VOLUMETRIC BUDGET FOR ENTIRE MODEL AT END OF TIME STEP   30, STRESS PERIOD  41
  ------------------------------------------------------------------------------

     CUMULATIVE VOLUMES      L**3       RATES FOR THIS TIME STEP      L**3/T
     ------------------                 ------------------------

           IN:                                      IN:
           ---                                      ---
               AG WELLS  =   219671824.0000                 AG WELLS  =           0.0000
      DIVERSION SEGMENTS =   974557696.0000        DIVERSION SEGMENTS =           0.0000
           GW IRRIGATION =           0.0000             GW IRRIGATION =           0.0000
           SW IRRIGATION =           0.0000             SW IRRIGATION =           0.0000
        SYSTEM LOSSES GW =           0.0000          SYSTEM LOSSES GW =           0.0000
        SYSTEM LOSSES SW =           0.0000          SYSTEM LOSSES SW =           0.0000

                TOTAL IN =  1194229504.0000                  TOTAL IN =           0.0000

          OUT:                                     OUT:
          ----                                     ----
               AG WELLS  =           0.0000                 AG WELLS  =           0.0000
      DIVERSION SEGMENTS =           0.0000        DIVERSION SEGMENTS =           0.0000
           GW IRRIGATION =   219671824.0000             GW IRRIGATION =           0.0000
           SW IRRIGATION =   974577408.0000             SW IRRIGATION =           0.0000
        SYSTEM LOSSES GW =           0.0000          SYSTEM LOSSES GW =           0.0000
        SYSTEM LOSSES SW =           0.0000          SYSTEM LOSSES SW =           0.0000

               TOTAL OUT =  1194249216.0000                 TOTAL OUT =           0.0000

                IN - OUT =      -19712.0000                  IN - OUT =           0.0000

     PERCENT DISCREPANCY =          -0.00         PERCENT DISCREPANCY =           0.00



1
  VOLUMETRIC BUDGET FOR ENTIRE MODEL AT END OF TIME STEP   30, STRESS PERIOD  41
  ------------------------------------------------------------------------------

     CUMULATIVE VOLUMES      L**3       RATES FOR THIS TIME STEP      L**3/T
     ------------------                 ------------------------

           IN:                                      IN:
           ---                                      ---
             STORAGE     =   381859008.0000               STORAGE     =           0.9328
       CONSTANT HEAD     =           0.0000         CONSTANT HEAD     =           0.0000
     HEAD DEP BOUNDS     =    30099580.0000       HEAD DEP BOUNDS     =           0.2863
      STREAM LEAKAGE     =  1259182336.0000        STREAM LEAKAGE     =          12.5908
        UZF RECHARGE     =     1883440.3750          UZF RECHARGE     =           0.0000
               GW ET     =           0.0000                 GW ET     =           0.0000
     SURFACE LEAKAGE     =           0.0000       SURFACE LEAKAGE     =           0.0000
           AG WELLS      =           0.0000             AG WELLS      =           0.0000

                TOTAL IN =  1673024256.0000                  TOTAL IN =          13.8099

          OUT:                                     OUT:
          ----                                     ----
             STORAGE     =   285020320.0000               STORAGE     =           2.4326
       CONSTANT HEAD     =           0.0000         CONSTANT HEAD     =           0.0000
     HEAD DEP BOUNDS     =    30615632.0000       HEAD DEP BOUNDS     =           0.2956
      STREAM LEAKAGE     =  1134107136.0000        STREAM LEAKAGE     =          10.9819
        UZF RECHARGE     =           0.0000          UZF RECHARGE     =           0.0000
               GW ET     =     3615492.7500                 GW ET     =           0.1002
     SURFACE LEAKAGE     =           0.0000       SURFACE LEAKAGE     =           0.0000
           AG WELLS      =   219671824.0000             AG WELLS      =           0.0000

               TOTAL OUT =  1673030400.0000                 TOTAL OUT =          13.8103

                IN - OUT =       -6144.0000                  IN - OUT =      -4.2343E-04

     PERCENT DISCREPANCY =          -0.00         PERCENT DISCREPANCY =          -0.00






         TIME SUMMARY AT END OF TIME STEP   30 IN STRESS PERIOD   41
                    SECONDS     MINUTES      HOURS       DAYS        YEARS
                    -----------------------------------------------------------
   TIME STEP LENGTH  87667.      1461.1      24.352      1.0147     2.77799E-03
 STRESS PERIOD TIME 2.63000E+06  43833.      730.56      30.440     8.33397E-02
         TOTAL TIME 1.05286E+08 1.75476E+06  29246.      1218.6      3.3363    
1
1
                            STRESS PERIOD NO.   42, LENGTH =   2630000.    
                            -----------------------------------------------

                              NUMBER OF TIME STEPS =    30

                               MULTIPLIER FOR DELT =     1.000

                            INITIAL TIME STEP SIZE =   87666.66    

 REUSING NON-PARAMETER GHB CELLS FROM LAST STRESS PERIOD

      2 GHB CELLS

 REUSING STREAM SEGMENT DATA FROM LAST STRESS PERIOD



            AREAL INFILTRATION RATE
 READING ON UNIT   19 WITH FORMAT: (10F4.0)            

            1           2           3           4           5           6           7           8           9          10
 ........................................................................................................................
   1   1.2000E-09   0.000       0.000       0.000       0.000       0.000       0.000       0.000       0.000       0.000    
   2   2.1000E-09  2.0000E-09  8.0000E-10  8.5000E-09   0.000       0.000       0.000       0.000       0.000       0.000    
   3   5.0000E-10  1.1000E-09  8.8000E-09  5.5000E-09   0.000       0.000       0.000       0.000       0.000       0.000    
   4   8.5000E-09  1.1000E-09  1.1000E-09  1.1000E-09  2.0000E-09   0.000       0.000       0.000       0.000       0.000    
   5   8.5000E-09  1.1000E-09  1.1000E-09  1.1000E-09  1.1000E-09   0.000       0.000       0.000       0.000       0.000    
   6   8.5000E-09  5.2000E-09  2.1000E-09  1.1000E-09  1.5000E-09   0.000       0.000       0.000       0.000       0.000    
   7   8.5000E-09  5.2000E-09  2.1000E-09  1.2000E-09  2.0000E-09   0.000       0.000       0.000       0.000       0.000    
   8   5.0000E-10  5.2000E-09  2.1000E-09  1.2000E-09  5.0000E-09   0.000       0.000       0.000       0.000       0.000    
   9   5.0000E-10  5.2000E-09  2.1000E-09  1.2000E-09  5.0000E-09   0.000       0.000       0.000       0.000       0.000    
  10   5.0000E-10  5.2000E-09  2.1000E-09  1.2000E-09  5.8000E-09   0.000       0.000       0.000       0.000       0.000    
  11   1.0000E-10  1.1000E-09  1.1000E-09  1.2000E-09  5.0000E-09   0.000       0.000       0.000       0.000       0.000    
  12   1.1000E-09  1.1000E-09  1.1000E-09  1.1000E-09  2.0000E-09   0.000       0.000       0.000       0.000       0.000    
  13   1.1000E-09  2.2000E-09  2.2000E-09  2.1000E-09  1.0000E-09   0.000       0.000       0.000       0.000       0.000    
  14   2.0000E-10  5.5000E-09  5.5000E-09  5.2000E-09  1.0000E-09   0.000       0.000       0.000       0.000       0.000    
  15    0.000      8.8000E-09  8.8000E-09   0.000       0.000       0.000       0.000       0.000       0.000       0.000    

                  ET RATE =  5.000000E-08

 USING ET EXTINCTION DEPTH FROM PREVIOUS STRESS PERIOD. CURRENT PERIOD IS:      42

 USING EXTINCTION WATER CONTENT FROM PREVIOUS STRESS PERIOD. CURRENT PERIOD IS:      42

 USING AIR ENTRY PRESSURE FROM PREVIOUS STRESS PERIOD. CURRENT PERIOD IS:      42

 USING ROOT PRESSURE HEAD FROM PREVIOUS STRESS PERIOD. CURRENT PERIOD IS:      42

 USING ROOT ACTIVITY FROM PREVIOUS STRESS PERIOD. CURRENT PERIOD IS:      42

 PROCESSING AG STRESS PERIOD DATA

 READING AG STRESS PERIOD DATA

 READING IRRIGATION SEGMENT

 READING IRRIGATION WELL

 READING SUPPLEMENTAL WELL

 END PROCESSING AG STRESS PERIOD DATA OPTIONS
 
 SOLVING FOR HEAD 
                                                   Max.-Head-Change                         Max.-Flux-Residual
  Residual-Control   Outer-Iter.   Inner-Iter.     Column Row Layer    Maximum-Head-Change  Column Row Layer    Maximum-Flux-Residual          L2-NORM 
          0                 1           2             3   13     1      -0.3706449925E-02       3   13    1        -0.2193109015E+00      0.5112544927E+00
          0                 2           2             4   13     1      -0.2346218163E-02       4   13    1        -0.1399245622E+00      0.2435674473E+00
          0                 3           2             4   13     1       0.2156962544E-03       4   13    1         0.1322750096E-01      0.2242043111E-01
          0                 4           1             4   13     1      -0.3308553613E-04       4   13    1        -0.2085564816E-02      0.3528124589E-02

    ------------------------------------------------
       NWT REQUIRED            4 OUTER ITERATIONS 
       AND A TOTAL OF          7 INNER ITERATIONS.
    ------------------------------------------------

 NO OUTPUT CONTROL FOR STRESS PERIOD   42   TIME STEP    1
 
 SOLVING FOR HEAD 
                                                   Max.-Head-Change                         Max.-Flux-Residual
  Residual-Control   Outer-Iter.   Inner-Iter.     Column Row Layer    Maximum-Head-Change  Column Row Layer    Maximum-Flux-Residual          L2-NORM 
          0                 1           2             3   13     1      -0.2984228340E-02       3   13    1        -0.1765867127E+00      0.4681363517E+00
          0                 2           2             4   13     1      -0.2347485111E-02       4   13    1        -0.1400162353E+00      0.2421295359E+00
          0                 3           2             4   13     1       0.1861176113E-03       4   13    1         0.1141541383E-01      0.1915391040E-01
          0                 4           1             4   13     1      -0.8863391637E-04       4   13    1        -0.5586252157E-02      0.9583531558E-02

    ------------------------------------------------
       NWT REQUIRED            4 OUTER ITERATIONS 
       AND A TOTAL OF          7 INNER ITERATIONS.
    ------------------------------------------------

 NO OUTPUT CONTROL FOR STRESS PERIOD   42   TIME STEP    2
 
 SOLVING FOR HEAD 
                                                   Max.-Head-Change                         Max.-Flux-Residual
  Residual-Control   Outer-Iter.   Inner-Iter.     Column Row Layer    Maximum-Head-Change  Column Row Layer    Maximum-Flux-Residual          L2-NORM 
          0                 1           2             1    1     1       0.2589562988E-02       3   13    1        -0.1388857901E+00      0.4347067111E+00
          0                 2           2             4   13     1      -0.2172585216E-02       4   13    1        -0.1296068474E+00      0.2230968222E+00
          0                 3           1             4   13     1       0.8430860354E-04       4   13    1         0.5174728789E-02      0.8496268920E-02

    ------------------------------------------------
       NWT REQUIRED            3 OUTER ITERATIONS 
       AND A TOTAL OF          5 INNER ITERATIONS.
    ------------------------------------------------

 NO OUTPUT CONTROL FOR STRESS PERIOD   42   TIME STEP    3
 
 SOLVING FOR HEAD 
                                                   Max.-Head-Change                         Max.-Flux-Residual
  Residual-Control   Outer-Iter.   Inner-Iter.     Column Row Layer    Maximum-Head-Change  Column Row Layer    Maximum-Flux-Residual          L2-NORM 
          0                 1           2             1    1     1       0.2587589084E-02       1    1    1         0.1342900873E+00      0.4108067120E+00
          0                 2           2             4   13     1      -0.2174816988E-02       4   13    1        -0.1297489734E+00      0.2224902750E+00
          0                 3           1             4   13     1       0.6450176255E-04       4   13    1         0.3960943714E-02      0.6462406002E-02

    ------------------------------------------------
       NWT REQUIRED            3 OUTER ITERATIONS 
       AND A TOTAL OF          5 INNER ITERATIONS.
    ------------------------------------------------

 NO OUTPUT CONTROL FOR STRESS PERIOD   42   TIME STEP    4
 
 SOLVING FOR HEAD 
                                                   Max.-Head-Change                         Max.-Flux-Residual
  Residual-Control   Outer-Iter.   Inner-Iter.     Column Row Layer    Maximum-Head-Change  Column Row Layer    Maximum-Flux-Residual          L2-NORM 
          0                 1           2             1    1     1       0.2585644175E-02       1    1    1         0.1341889598E+00      0.3935666889E+00
          0                 2           2             4   13     1      -0.2169001836E-02       4   13    1        -0.1294093757E+00      0.2212980209E+00
          0                 3           1             4   13     1       0.4338131066E-04       4   13    1         0.2666460150E-02      0.4471951405E-02

    ------------------------------------------------
       NWT REQUIRED            3 OUTER ITERATIONS 
       AND A TOTAL OF          5 INNER ITERATIONS.
    ------------------------------------------------

 NO OUTPUT CONTROL FOR STRESS PERIOD   42   TIME STEP    5
 
 SOLVING FOR HEAD 
                                                   Max.-Head-Change                         Max.-Flux-Residual
  Residual-Control   Outer-Iter.   Inner-Iter.     Column Row Layer    Maximum-Head-Change  Column Row Layer    Maximum-Flux-Residual          L2-NORM 
          0                 1           2             1    1     1       0.2583681362E-02       1    1    1         0.1340869029E+00      0.3816860461E+00
          0                 2           2             4   13     1      -0.2183019829E-02       4   13    1        -0.1302500018E+00      0.2223158134E+00
          0                 3           1             4   13     1       0.3400119049E-04       4   13    1         0.2091648828E-02      0.3699263294E-02

    ------------------------------------------------
       NWT REQUIRED            3 OUTER ITERATIONS 
       AND A TOTAL OF          5 INNER ITERATIONS.
    ------------------------------------------------

 NO OUTPUT CONTROL FOR STRESS PERIOD   42   TIME STEP    6
 
 SOLVING FOR HEAD 
                                                   Max.-Head-Change                         Max.-Flux-Residual
  Residual-Control   Outer-Iter.   Inner-Iter.     Column Row Layer    Maximum-Head-Change  Column Row Layer    Maximum-Flux-Residual          L2-NORM 
          0                 1           2             1    1     1       0.2581724054E-02       1    1    1         0.1339851341E+00      0.3739829336E+00
          0                 2           2             4   13     1      -0.2156264672E-02       4   13    1        -0.1322681470E+00      0.2251941233E+00
          0                 3           1             4   13     1      -0.2837730538E-04       4   13    1        -0.1774079041E-02      0.3605230672E-02

    ------------------------------------------------
       NWT REQUIRED            3 OUTER ITERATIONS 
       AND A TOTAL OF          5 INNER ITERATIONS.
    ------------------------------------------------

 NO OUTPUT CONTROL FOR STRESS PERIOD   42   TIME STEP    7
 
 SOLVING FOR HEAD 
                                                   Max.-Head-Change                         Max.-Flux-Residual
  Residual-Control   Outer-Iter.   Inner-Iter.     Column Row Layer    Maximum-Head-Change  Column Row Layer    Maximum-Flux-Residual          L2-NORM 
          0                 1           2             1    1     1       0.2579772253E-02       1    1    1         0.1338836507E+00      0.3693525123E+00
          0                 2           2             4   13     1      -0.1927778176E-02       4   13    1        -0.1182647045E+00      0.2014449489E+00
          0                 3           1             4   13     1      -0.1554433187E-03       4   13    1        -0.9561539975E-02      0.1398859599E-01
          0                 4           2             2   13     1      -0.4608547166E-03       4   13    1        -0.2766110195E-01      0.4791709712E-01
          0                 5           1             2   13     1       0.4291494277E-04       2   13    1         0.2488510764E-02      0.4202022334E-02

    ------------------------------------------------
       NWT REQUIRED            5 OUTER ITERATIONS 
       AND A TOTAL OF          8 INNER ITERATIONS.
    ------------------------------------------------

 NO OUTPUT CONTROL FOR STRESS PERIOD   42   TIME STEP    8
 
 SOLVING FOR HEAD 
                                                   Max.-Head-Change                         Max.-Flux-Residual
  Residual-Control   Outer-Iter.   Inner-Iter.     Column Row Layer    Maximum-Head-Change  Column Row Layer    Maximum-Flux-Residual          L2-NORM 
          0                 1           2             1    1     1       0.2577850042E-02       1    1    1         0.1337837051E+00      0.3672259330E+00
          0                 2           2             4   13     1      -0.1946687518E-02       4   13    1        -0.1194264178E+00      0.2032593139E+00
          0                 3           2             4   13     1      -0.1598219895E-03       4   13    1        -0.9800644890E-02      0.1592140008E-01
          0                 4           2             2   13     1      -0.4673540133E-03       4   13    1        -0.2804296809E-01      0.4856507710E-01
          0                 5           1             2   13     1       0.4356306167E-04       2   13    1         0.2532144364E-02      0.3893697160E-02

    ------------------------------------------------
       NWT REQUIRED            5 OUTER ITERATIONS 
       AND A TOTAL OF          9 INNER ITERATIONS.
    ------------------------------------------------

 NO OUTPUT CONTROL FOR STRESS PERIOD   42   TIME STEP    9
 
 SOLVING FOR HEAD 
                                                   Max.-Head-Change                         Max.-Flux-Residual
  Residual-Control   Outer-Iter.   Inner-Iter.     Column Row Layer    Maximum-Head-Change  Column Row Layer    Maximum-Flux-Residual          L2-NORM 
          0                 1           2             1    1     1       0.2575909797E-02       1    1    1         0.1336828248E+00      0.3672719947E+00
          0                 2           2             4   13     1      -0.1961581741E-02       4   13    1        -0.1203410570E+00      0.2047530692E+00
          0                 3           2             4   13     1      -0.1645263555E-03       4   13    1        -0.1008902431E-01      0.1640605716E-01
          0                 4           2             2   13     1      -0.4736724039E-03       4   13    1        -0.2842053506E-01      0.4921978140E-01
          0                 5           1             2   13     1       0.4413915352E-04       2   13    1         0.2565683095E-02      0.3632833024E-02

    ------------------------------------------------
       NWT REQUIRED            5 OUTER ITERATIONS 
       AND A TOTAL OF          9 INNER ITERATIONS.
    ------------------------------------------------

 NO OUTPUT CONTROL FOR STRESS PERIOD   42   TIME STEP   10
 
 SOLVING FOR HEAD 
                                                   Max.-Head-Change                         Max.-Flux-Residual
  Residual-Control   Outer-Iter.   Inner-Iter.     Column Row Layer    Maximum-Head-Change  Column Row Layer    Maximum-Flux-Residual          L2-NORM 
          0                 1           2             1    1     1       0.2573974987E-02       1    1    1         0.1335822260E+00      0.3687188673E+00
          0                 2           2             4   13     1      -0.2006997811E-02       4   13    1        -0.1231466693E+00      0.2073407224E+00
          0                 3           2             4   13     1      -0.2187729872E-03       4   13    1        -0.1295693867E-01      0.2002401958E-01
          0                 4           2             4   13     1      -0.4832054108E-03       4   13    1        -0.2855032554E-01      0.4966379297E-01
          0                 5           1             4   13     1       0.3246729187E-04       4   13    1         0.1970684517E-02      0.3510045060E-02

    ------------------------------------------------
       NWT REQUIRED            5 OUTER ITERATIONS 
       AND A TOTAL OF          9 INNER ITERATIONS.
    ------------------------------------------------

 NO OUTPUT CONTROL FOR STRESS PERIOD   42   TIME STEP   11
 
 SOLVING FOR HEAD 
                                                   Max.-Head-Change                         Max.-Flux-Residual
  Residual-Control   Outer-Iter.   Inner-Iter.     Column Row Layer    Maximum-Head-Change  Column Row Layer    Maximum-Flux-Residual          L2-NORM 
          0                 1           2             1    1     1       0.2572045589E-02       1    1    1         0.1334819090E+00      0.3706219787E+00
          0                 2           2             4   13     1      -0.2050428240E-02       4   13    1        -0.1212434745E+00      0.2067797000E+00
          0                 3           2             2   13     1      -0.1873426360E-03       2   13    1        -0.1087769445E-01      0.1907536081E-01
          0                 4           2             4   13     1      -0.4931108715E-03       4   13    1        -0.2913746740E-01      0.5047296192E-01
          0                 5           1             4   13     1       0.3307290639E-04       4   13    1         0.2007544731E-02      0.3564252815E-02

    ------------------------------------------------
       NWT REQUIRED            5 OUTER ITERATIONS 
       AND A TOTAL OF          9 INNER ITERATIONS.
    ------------------------------------------------

 NO OUTPUT CONTROL FOR STRESS PERIOD   42   TIME STEP   12
 
 SOLVING FOR HEAD 
                                                   Max.-Head-Change                         Max.-Flux-Residual
  Residual-Control   Outer-Iter.   Inner-Iter.     Column Row Layer    Maximum-Head-Change  Column Row Layer    Maximum-Flux-Residual          L2-NORM 
          0                 1           2             1    1     1       0.2570121552E-02       1    1    1         0.1333818726E+00      0.3731963112E+00
          0                 2           2             4   13     1      -0.2054682311E-02       4   13    1        -0.1214924418E+00      0.2075827845E+00
          0                 3           2             2   13     1      -0.1917160463E-03       2   13    1        -0.1113144697E-01      0.1954064727E-01
          0                 4           2             4   13     1      -0.4982842054E-03       4   13    1        -0.2944316521E-01      0.5101302163E-01
          0                 5           1             4   13     1       0.3347437328E-04       4   13    1         0.2031964072E-02      0.3610606610E-02

    ------------------------------------------------
       NWT REQUIRED            5 OUTER ITERATIONS 
       AND A TOTAL OF          9 INNER ITERATIONS.
    ------------------------------------------------

 NO OUTPUT CONTROL FOR STRESS PERIOD   42   TIME STEP   13
 
 SOLVING FOR HEAD 
                                                   Max.-Head-Change                         Max.-Flux-Residual
  Residual-Control   Outer-Iter.   Inner-Iter.     Column Row Layer    Maximum-Head-Change  Column Row Layer    Maximum-Flux-Residual          L2-NORM 
          0                 1           2             1    1     1       0.2568202880E-02       1    1    1         0.1332821142E+00      0.3761854069E+00
          0                 2           2             4   13     1      -0.2052018490E-02       4   13    1        -0.1213331169E+00      0.2076602345E+00
          0                 3           2             2   13     1      -0.1991495222E-03       2   13    1        -0.1156267926E-01      0.2033393254E-01
          0                 4           2             4   13     1      -0.5059655771E-03       4   13    1        -0.2989701471E-01      0.5180305613E-01
          0                 5           1             4   13     1       0.3398400908E-04       4   13    1         0.2062874688E-02      0.3659120305E-02

    ------------------------------------------------
       NWT REQUIRED            5 OUTER ITERATIONS 
       AND A TOTAL OF          9 INNER ITERATIONS.
    ------------------------------------------------

 NO OUTPUT CONTROL FOR STRESS PERIOD   42   TIME STEP   14
 
 SOLVING FOR HEAD 
                                                   Max.-Head-Change                         Max.-Flux-Residual
  Residual-Control   Outer-Iter.   Inner-Iter.     Column Row Layer    Maximum-Head-Change  Column Row Layer    Maximum-Flux-Residual          L2-NORM 
          0                 1           2             1    1     1       0.2566289552E-02       1    1    1         0.1331826340E+00      0.3794356411E+00
          0                 2           2             4   13     1      -0.2052052759E-02       4   13    1        -0.1213333735E+00      0.2079772908E+00
          0                 3           2             2   13     1      -0.2046805595E-03       2   13    1        -0.1188348910E-01      0.2092674564E-01
          0                 4           2             4   13     1      -0.5117578105E-03       4   13    1        -0.3023928034E-01      0.5240113564E-01
          0                 5           1             4   13     1       0.3439033224E-04       4   13    1         0.2087514282E-02      0.3704454213E-02

    ------------------------------------------------
       NWT REQUIRED            5 OUTER ITERATIONS 
       AND A TOTAL OF          9 INNER ITERATIONS.
    ------------------------------------------------

 NO OUTPUT CONTROL FOR STRESS PERIOD   42   TIME STEP   15
 
 SOLVING FOR HEAD 
                                                   Max.-Head-Change                         Max.-Flux-Residual
  Residual-Control   Outer-Iter.   Inner-Iter.     Column Row Layer    Maximum-Head-Change  Column Row Layer    Maximum-Flux-Residual          L2-NORM 
          0                 1           2             1    1     1       0.2564404976E-02       1    1    1         0.1330846480E+00      0.3828041490E+00
          0                 2           2             4   13     1      -0.2050931564E-02       4   13    1        -0.1212655328E+00      0.2081585732E+00
          0                 3           2             2   13     1      -0.2125180677E-03       4   13    1        -0.1233901451E-01      0.2176421623E-01
          0                 4           2             4   13     1      -0.5079090494E-03       4   13    1        -0.3001194402E-01      0.5201279273E-01
          0                 5           1             4   13     1       0.2718044898E-04       4   13    1         0.1649614386E-02      0.2949624185E-02

    ------------------------------------------------
       NWT REQUIRED            5 OUTER ITERATIONS 
       AND A TOTAL OF          9 INNER ITERATIONS.
    ------------------------------------------------

 NO OUTPUT CONTROL FOR STRESS PERIOD   42   TIME STEP   16
 
 SOLVING FOR HEAD 
                                                   Max.-Head-Change                         Max.-Flux-Residual
  Residual-Control   Outer-Iter.   Inner-Iter.     Column Row Layer    Maximum-Head-Change  Column Row Layer    Maximum-Flux-Residual          L2-NORM 
          0                 1           2             1    1     1       0.2562502197E-02       1    1    1         0.1329857185E+00      0.3861965633E+00
          0                 2           2             4   13     1      -0.2048814170E-02       4   13    1        -0.1211390177E+00      0.2082164373E+00
          0                 3           2             2   13     1      -0.2234423999E-03       4   13    1        -0.1302821290E-01      0.2293086740E-01
          0                 4           2             4   13     1      -0.4923809446E-03       4   13    1        -0.2909459498E-01      0.5042624063E-01
          0                 5           1             1   13     1       0.1303042572E-04       1   13    1         0.7310799151E-03      0.1294448542E-02

    ------------------------------------------------
       NWT REQUIRED            5 OUTER ITERATIONS 
       AND A TOTAL OF          9 INNER ITERATIONS.
    ------------------------------------------------

 NO OUTPUT CONTROL FOR STRESS PERIOD   42   TIME STEP   17
 
 SOLVING FOR HEAD 
                                                   Max.-Head-Change                         Max.-Flux-Residual
  Residual-Control   Outer-Iter.   Inner-Iter.     Column Row Layer    Maximum-Head-Change  Column Row Layer    Maximum-Flux-Residual          L2-NORM 
          0                 1           2             1    1     1       0.2560604694E-02       1    1    1         0.1328870623E+00      0.3895531322E+00
          0                 2           2             4   13     1      -0.2045745606E-02       4   13    1        -0.1209564068E+00      0.2081595308E+00
          0                 3           2             2   13     1      -0.2346678607E-03       4   13    1        -0.1373298817E-01      0.2412774231E-01
          0                 4           2             4   13     1      -0.4784331579E-03       4   13    1        -0.2827060480E-01      0.4900107456E-01
          0                 5           1             1   13     1       0.4805010095E-05       1   13    1         0.2725226068E-03      0.4851326026E-03

    ------------------------------------------------
       NWT REQUIRED            5 OUTER ITERATIONS 
       AND A TOTAL OF          9 INNER ITERATIONS.
    ------------------------------------------------

 NO OUTPUT CONTROL FOR STRESS PERIOD   42   TIME STEP   18
 
 SOLVING FOR HEAD 
                                                   Max.-Head-Change                         Max.-Flux-Residual
  Residual-Control   Outer-Iter.   Inner-Iter.     Column Row Layer    Maximum-Head-Change  Column Row Layer    Maximum-Flux-Residual          L2-NORM 
          0                 1           2             1    1     1       0.2558712446E-02       1    1    1         0.1327886797E+00      0.3928166685E+00
          0                 2           2             4   13     1      -0.2041632005E-02       4   13    1        -0.1207121710E+00      0.2079802143E+00
          0                 3           2             2   13     1      -0.2462755406E-03       4   13    1        -0.1446258128E-01      0.2536832406E-01
          0                 4           2             4   13     1      -0.4656665851E-03       4   13    1        -0.2751638229E-01      0.4769646491E-01
          0                 5           1             2   13     1      -0.1717197491E-04       2   13    1        -0.9986770656E-03      0.1670772997E-02

    ------------------------------------------------
       NWT REQUIRED            5 OUTER ITERATIONS 
       AND A TOTAL OF          9 INNER ITERATIONS.
    ------------------------------------------------

 NO OUTPUT CONTROL FOR STRESS PERIOD   42   TIME STEP   19
 
 SOLVING FOR HEAD 
                                                   Max.-Head-Change                         Max.-Flux-Residual
  Residual-Control   Outer-Iter.   Inner-Iter.     Column Row Layer    Maximum-Head-Change  Column Row Layer    Maximum-Flux-Residual          L2-NORM 
          0                 1           2             1    1     1       0.2556825430E-02       1    1    1         0.1326905695E+00      0.3959598917E+00
          0                 2           2             4   13     1      -0.2036518516E-02       4   13    1        -0.1204089448E+00      0.2076833933E+00
          0                 3           2             2   13     1      -0.2583788521E-03       4   13    1        -0.1522161948E-01      0.2666174058E-01
          0                 4           2             4   13     1      -0.4538819963E-03       4   13    1        -0.2682016602E-01      0.4649366586E-01
          0                 5           1             2   13     1      -0.2856541788E-04       4   13    1        -0.1671144179E-02      0.2871928099E-02

    ------------------------------------------------
       NWT REQUIRED            5 OUTER ITERATIONS 
       AND A TOTAL OF          9 INNER ITERATIONS.
    ------------------------------------------------

 NO OUTPUT CONTROL FOR STRESS PERIOD   42   TIME STEP   20
 
 SOLVING FOR HEAD 
                                                   Max.-Head-Change                         Max.-Flux-Residual
  Residual-Control   Outer-Iter.   Inner-Iter.     Column Row Layer    Maximum-Head-Change  Column Row Layer    Maximum-Flux-Residual          L2-NORM 
          0                 1           2             1    1     1       0.2554943597E-02       1    1    1         0.1325927306E+00      0.3989564029E+00
          0                 2           2             4   13     1      -0.2030488589E-02       4   13    1        -0.1200516572E+00      0.2072787656E+00
          0                 3           2             2   13     1      -0.2709404703E-03       4   13    1        -0.1600498608E-01      0.2848753908E-01
          0                 4           2             4   13     1      -0.4430181286E-03       4   13    1        -0.2617836555E-01      0.4541102514E-01
          0                 5           1             4   13     1      -0.3904297325E-04       4   13    1        -0.2308108275E-02      0.4075739537E-02

    ------------------------------------------------
       NWT REQUIRED            5 OUTER ITERATIONS 
       AND A TOTAL OF          9 INNER ITERATIONS.
    ------------------------------------------------

 NO OUTPUT CONTROL FOR STRESS PERIOD   42   TIME STEP   21
 
 SOLVING FOR HEAD 
                                                   Max.-Head-Change                         Max.-Flux-Residual
  Residual-Control   Outer-Iter.   Inner-Iter.     Column Row Layer    Maximum-Head-Change  Column Row Layer    Maximum-Flux-Residual          L2-NORM 
          0                 1           2             1    1     1       0.2553066952E-02       1    1    1         0.1324951604E+00      0.4018008866E+00
          0                 2           2             4   13     1      -0.2033120891E-02       4   13    1        -0.1202064362E+00      0.2077176155E+00
          0                 3           2             4   13     1      -0.2752822360E-03       4   13    1        -0.1627148200E-01      0.2895494323E-01
          0                 4           2             4   13     1      -0.4373355674E-03       4   13    1        -0.2584264037E-01      0.4483325233E-01
          0                 5           1             4   13     1      -0.4373228537E-04       4   13    1        -0.2585168912E-02      0.4555808084E-02

    ------------------------------------------------
       NWT REQUIRED            5 OUTER ITERATIONS 
       AND A TOTAL OF          9 INNER ITERATIONS.
    ------------------------------------------------

 NO OUTPUT CONTROL FOR STRESS PERIOD   42   TIME STEP   22
 
 SOLVING FOR HEAD 
                                                   Max.-Head-Change                         Max.-Flux-Residual
  Residual-Control   Outer-Iter.   Inner-Iter.     Column Row Layer    Maximum-Head-Change  Column Row Layer    Maximum-Flux-Residual          L2-NORM 
          0                 1           2             1    1     1       0.2551195476E-02       1    1    1         0.1323978593E+00      0.4044806142E+00
          0                 2           2             4   13     1      -0.2038230215E-02       4   13    1        -0.1205067521E+00      0.2084354916E+00
          0                 3           2             4   13     1      -0.2768910706E-03       4   13    1        -0.1636711425E-01      0.2908670028E-01
          0                 4           2             4   13     1      -0.4332584410E-03       4   13    1        -0.2560171889E-01      0.4441951709E-01
          0                 5           1             4   13     1      -0.4652902805E-04       4   13    1        -0.2750360647E-02      0.4847817545E-02

    ------------------------------------------------
       NWT REQUIRED            5 OUTER ITERATIONS 
       AND A TOTAL OF          9 INNER ITERATIONS.
    ------------------------------------------------

 NO OUTPUT CONTROL FOR STRESS PERIOD   42   TIME STEP   23
 
 SOLVING FOR HEAD 
                                                   Max.-Head-Change                         Max.-Flux-Residual
  Residual-Control   Outer-Iter.   Inner-Iter.     Column Row Layer    Maximum-Head-Change  Column Row Layer    Maximum-Flux-Residual          L2-NORM 
          0                 1           2             1    1     1       0.2549329144E-02       4   13    1         0.1350788850E+00      0.4069957720E+00
          0                 2           2             4   13     1      -0.2042893873E-02       4   13    1        -0.1207812039E+00      0.2090760117E+00
          0                 3           2             4   13     1      -0.2785031184E-03       4   13    1        -0.1646247990E-01      0.2924228032E-01
          0                 4           2             4   13     1      -0.4292389538E-03       4   13    1        -0.2536427561E-01      0.4400973260E-01
          0                 5           1             4   13     1      -0.4939054701E-04       4   13    1        -0.2919432347E-02      0.5136618647E-02

    ------------------------------------------------
       NWT REQUIRED            5 OUTER ITERATIONS 
       AND A TOTAL OF          9 INNER ITERATIONS.
    ------------------------------------------------

 NO OUTPUT CONTROL FOR STRESS PERIOD   42   TIME STEP   24
 
 SOLVING FOR HEAD 
                                                   Max.-Head-Change                         Max.-Flux-Residual
  Residual-Control   Outer-Iter.   Inner-Iter.     Column Row Layer    Maximum-Head-Change  Column Row Layer    Maximum-Flux-Residual          L2-NORM 
          0                 1           2             1    1     1       0.2547467938E-02       4   13    1         0.1376161781E+00      0.4093527663E+00
          0                 2           2             4   13     1      -0.2047031725E-02       4   13    1        -0.1210245856E+00      0.2096563016E+00
          0                 3           2             4   13     1      -0.2801594142E-03       4   13    1        -0.1655432755E-01      0.2943433037E-01
          0                 4           2             4   13     1      -0.4253102039E-03       4   13    1        -0.2513171541E-01      0.4361349814E-01
          0                 5           1             4   13     1      -0.5207314463E-04       4   13    1        -0.3076584208E-02      0.5416486378E-02

    ------------------------------------------------
       NWT REQUIRED            5 OUTER ITERATIONS 
       AND A TOTAL OF          9 INNER ITERATIONS.
    ------------------------------------------------

 NO OUTPUT CONTROL FOR STRESS PERIOD   42   TIME STEP   25
 
 SOLVING FOR HEAD 
                                                   Max.-Head-Change                         Max.-Flux-Residual
  Residual-Control   Outer-Iter.   Inner-Iter.     Column Row Layer    Maximum-Head-Change  Column Row Layer    Maximum-Flux-Residual          L2-NORM 
          0                 1           2             1    1     1       0.2545611808E-02       4   13    1         0.1399149844E+00      0.4115368535E+00
          0                 2           2             4   13     1      -0.2050536196E-02       4   13    1        -0.1212304161E+00      0.2101792040E+00
          0                 3           2             4   13     1      -0.2818904425E-03       4   13    1        -0.1665675109E-01      0.2959680906E-01
          0                 4           2             4   13     1      -0.4214493202E-03       4   13    1        -0.2490358436E-01      0.4322201335E-01
          0                 5           1             4   13     1      -0.5610238610E-04       4   13    1        -0.3315527699E-02      0.5730240090E-02

    ------------------------------------------------
       NWT REQUIRED            5 OUTER ITERATIONS 
       AND A TOTAL OF          9 INNER ITERATIONS.
    ------------------------------------------------

 NO OUTPUT CONTROL FOR STRESS PERIOD   42   TIME STEP   26
 
 SOLVING FOR HEAD 
                                                   Max.-Head-Change                         Max.-Flux-Residual
  Residual-Control   Outer-Iter.   Inner-Iter.     Column Row Layer    Maximum-Head-Change  Column Row Layer    Maximum-Flux-Residual          L2-NORM 
          0                 1           2             1    1     1       0.2543760759E-02       4   13    1         0.1420392414E+00      0.4135809153E+00
          0                 2           2             4   13     1      -0.2054210046E-02       4   13    1        -0.1214466318E+00      0.2106750315E+00
          0                 3           2             4   13     1      -0.2835040460E-03       4   13    1        -0.1675214408E-01      0.2975728635E-01
          0                 4           2             4   13     1      -0.4176738202E-03       4   13    1        -0.2468049085E-01      0.4283914791E-01
          0                 5           1             4   13     1      -0.5720277821E-04       4   13    1        -0.3379709351E-02      0.5939748163E-02

    ------------------------------------------------
       NWT REQUIRED            5 OUTER ITERATIONS 
       AND A TOTAL OF          9 INNER ITERATIONS.
    ------------------------------------------------

 NO OUTPUT CONTROL FOR STRESS PERIOD   42   TIME STEP   27
 
 SOLVING FOR HEAD 
                                                   Max.-Head-Change                         Max.-Flux-Residual
  Residual-Control   Outer-Iter.   Inner-Iter.     Column Row Layer    Maximum-Head-Change  Column Row Layer    Maximum-Flux-Residual          L2-NORM 
          0                 1           2             1    1     1       0.2541914773E-02       4   13    1         0.1439505837E+00      0.4154727310E+00
          0                 2           2             4   13     1      -0.2057299346E-02       4   13    1        -0.1216281840E+00      0.2111187793E+00
          0                 3           2             4   13     1      -0.2851776473E-03       4   13    1        -0.1685110879E-01      0.2991896108E-01
          0                 4           2             4   13     1      -0.4139491437E-03       4   13    1        -0.2446042496E-01      0.4246225893E-01
          0                 5           1             4   13     1      -0.5967469966E-04       4   13    1        -0.3525758219E-02      0.6192473540E-02

    ------------------------------------------------
       NWT REQUIRED            5 OUTER ITERATIONS 
       AND A TOTAL OF          9 INNER ITERATIONS.
    ------------------------------------------------

 NO OUTPUT CONTROL FOR STRESS PERIOD   42   TIME STEP   28
 
 SOLVING FOR HEAD 
                                                   Max.-Head-Change                         Max.-Flux-Residual
  Residual-Control   Outer-Iter.   Inner-Iter.     Column Row Layer    Maximum-Head-Change  Column Row Layer    Maximum-Flux-Residual          L2-NORM 
          0                 1           2             1    1     1       0.2540073827E-02       4   13    1         0.1456908649E+00      0.4172262534E+00
          0                 2           2             4   13     1      -0.2060039250E-02       4   13    1        -0.1217890624E+00      0.2115248516E+00
          0                 3           2             4   13     1      -0.2868870534E-03       4   13    1        -0.1695220782E-01      0.3008793786E-01
          0                 4           2             4   13     1      -0.4102879054E-03       4   13    1        -0.2424409135E-01      0.4208830526E-01
          0                 5           1             4   13     1      -0.6205220728E-04       4   13    1        -0.3666250119E-02      0.6435038030E-02

    ------------------------------------------------
       NWT REQUIRED            5 OUTER ITERATIONS 
       AND A TOTAL OF          9 INNER ITERATIONS.
    ------------------------------------------------

 NO OUTPUT CONTROL FOR STRESS PERIOD   42   TIME STEP   29
 
 SOLVING FOR HEAD 
                                                   Max.-Head-Change                         Max.-Flux-Residual
  Residual-Control   Outer-Iter.   Inner-Iter.     Column Row Layer    Maximum-Head-Change  Column Row Layer    Maximum-Flux-Residual          L2-NORM 
          0                 1           2             4   13     1       0.2556768937E-02       4   13    1         0.1472796584E+00      0.4188407358E+00
          0                 2           2             4   13     1      -0.2062462169E-02       4   13    1        -0.1219312598E+00      0.2118889791E+00
          0                 3           2             4   13     1      -0.2886437937E-03       4   13    1        -0.1705608422E-01      0.3026149075E-01
          0                 4           2             4   13     1      -0.4066939864E-03       4   13    1        -0.2403174422E-01      0.4172062292E-01
          0                 5           1             4   13     1      -0.6435900060E-04       4   13    1        -0.3802548643E-02      0.6673371089E-02

    ------------------------------------------------
       NWT REQUIRED            5 OUTER ITERATIONS 
       AND A TOTAL OF          9 INNER ITERATIONS.
    ------------------------------------------------

 NO OUTPUT CONTROL FOR STRESS PERIOD   42   TIME STEP   30



 STREAM LISTING     PERIOD     42   STEP       30

 LAYER ROW COL. STREAM  RCH.  FLOW INTO     FLOW TO   FLOW OUT OF   OVRLND.     DIRECT     STREAM       STREAM     STREAM     STREAM   STREAMBED  STREAMBED
                SEG.NO.  NO.  STRM. RCH.    AQUIFER    STRM. RCH.    RUNOFF     PRECIP       ET          HEAD       DEPTH      WIDTH   CONDCTNC.   GRADIENT

   1    1    1     1     1    4.7249E+01  3.2762E-01   4.6921E+01  0.000E+00  0.000E+00  0.000E+00  1.09443E+03  1.381E+00  1.662E+01  7.477E-02  1.460E+00
   1    2    2     1     2    4.6921E+01  5.0759E-01   4.6413E+01  0.000E+00  0.000E+00  0.000E+00  1.08944E+03  1.379E+00  1.656E+01  1.159E-01  1.460E+00
   1    3    3     1     3    4.6413E+01  4.3309E-01   4.5980E+01  0.000E+00  0.000E+00  0.000E+00  1.08379E+03  1.376E+00  1.650E+01  9.898E-02  1.459E+00
   1    3    4     1     4    4.5980E+01  3.9899E-01   4.5581E+01  0.000E+00  0.000E+00  0.000E+00  1.07878E+03  1.373E+00  1.644E+01  9.124E-02  1.458E+00
   1    4    5     2     1    4.3581E+01  3.6514E-01   4.3216E+01  0.000E+00  0.000E+00  0.000E+00  1.07362E+03  1.681E+00  1.200E+01  7.800E-02  1.560E+00
   1    5    6     2     2    4.3216E+01  2.8042E-01   4.2936E+01  0.000E+00  0.000E+00  0.000E+00  1.06818E+03  1.674E+00  1.200E+01  6.000E-02  1.558E+00
   1    6    6     2     3    4.2936E+01  2.8003E-01   4.2656E+01  0.000E+00  0.000E+00  0.000E+00  1.06346E+03  1.667E+00  1.200E+01  6.000E-02  1.556E+00
   1    7    6     2     4    4.2656E+01  2.7964E-01   4.2376E+01  0.000E+00  0.000E+00  0.000E+00  1.05874E+03  1.661E+00  1.200E+01  6.000E-02  1.554E+00
   1    8    6     2     5    4.2376E+01  2.7924E-01   4.2097E+01  0.000E+00  0.000E+00  0.000E+00  1.05401E+03  1.654E+00  1.200E+01  6.000E-02  1.551E+00
   1    3    5     3     1    2.0000E+00  2.8252E-01   1.7175E+00  0.000E+00  0.000E+00  0.000E+00  1.07555E+03  1.909E+00  9.636E+00  7.227E-02  1.955E+00
   1    3    6     3     2    1.7175E+00  2.4905E-01   1.4684E+00  0.000E+00  0.000E+00  0.000E+00  1.07264E+03  1.727E+00  8.909E+00  6.682E-02  1.864E+00
   1    3    7     3     3    1.4684E+00  1.9718E-01   1.2712E+00  0.000E+00  0.000E+00  0.000E+00  1.06987E+03  1.555E+00  8.218E+00  5.547E-02  1.777E+00
   1    4    8     3     4    1.2712E+00  2.2567E-01   1.0456E+00  0.000E+00  0.000E+00  0.000E+00  1.06682E+03  1.364E+00  7.455E+00  6.709E-02  1.682E+00
   1    5    8     3     5    1.0456E+00  1.5790E-01   8.8768E-01  0.000E+00  0.000E+00  0.000E+00  1.06362E+03  1.164E+00  6.655E+00  4.991E-02  1.582E+00
   1    6    8     3     6    8.8768E-01  5.5980E-02   8.3170E-01  0.000E+00  0.000E+00  0.000E+00  1.06158E+03  1.036E+00  6.145E+00  1.844E-02  1.518E+00
   1    5   10     4     1    1.0000E+01  9.0919E-02   9.9091E+00  0.000E+00  0.000E+00  0.000E+00  1.07836E+03  6.368E-01  1.000E+01  2.500E-02  1.212E+00
   1    5    9     4     2    9.9091E+00  1.8158E-01   9.7275E+00  0.000E+00  0.000E+00  0.000E+00  1.07154E+03  6.315E-01  1.000E+01  5.000E-02  1.211E+00
   1    6    8     4     3    9.7275E+00  1.2689E-01   9.6006E+00  0.000E+00  0.000E+00  0.000E+00  1.06381E+03  6.256E-01  1.000E+01  3.500E-02  1.209E+00
   1    6    8     5     1    1.0432E+01  2.2686E-01   1.0205E+01  0.000E+00  0.000E+00  0.000E+00  1.05868E+03  6.790E-01  1.542E+01  6.166E-02  1.226E+00
   1    7    7     5     2    1.0205E+01  2.7894E-01   9.9265E+00  0.000E+00  0.000E+00  0.000E+00  1.05417E+03  6.732E-01  1.519E+01  7.594E-02  1.224E+00
   1    8    7     5     3    9.9265E+00  1.9221E-01   9.7343E+00  0.000E+00  0.000E+00  0.000E+00  1.04992E+03  6.676E-01  1.497E+01  5.241E-02  1.223E+00
   1    8    6     5     4    9.7343E+00  1.3577E-01   9.5985E+00  0.000E+00  0.000E+00  0.000E+00  1.04691E+03  6.637E-01  1.482E+01  3.706E-02  1.221E+00
   1    9    6     6     1    4.4375E+01  2.8318E-01   4.4092E+01  0.000E+00  0.000E+00  0.000E+00  1.04445E+03  1.720E+00  1.200E+01  6.000E-02  1.573E+00
   1   10    7     6     2    4.4092E+01  2.8278E-01   4.3810E+01  0.000E+00  0.000E+00  0.000E+00  1.03989E+03  1.713E+00  1.200E+01  6.000E-02  1.571E+00
   1   11    7     6     3    4.3810E+01  2.8238E-01   4.3527E+01  0.000E+00  0.000E+00  0.000E+00  1.03534E+03  1.706E+00  1.200E+01  6.000E-02  1.569E+00
   1   12    7     6     4    4.3527E+01  2.8198E-01   4.3245E+01  0.000E+00  0.000E+00  0.000E+00  1.03079E+03  1.700E+00  1.200E+01  6.000E-02  1.567E+00
   1   13    7     6     5    4.3245E+01  1.2510E-02   4.3233E+01  0.000E+00  0.000E+00  0.000E+00  1.02761E+03  1.696E+00  1.200E+01  2.400E-02  1.737E-01
   1   14    9     7     1    1.5000E+02  1.3434E+00   1.4866E+02  0.000E+00  0.000E+00  0.000E+00  1.03987E+03  2.288E+00  5.529E+01  5.593E-01  8.006E-01
   1   13    8     7     2    1.4866E+02  1.8430E+00   1.4681E+02  0.000E+00  0.000E+00  0.000E+00  1.03478E+03  2.279E+00  5.526E+01  6.148E-01  9.993E-01
   1   13    7     7     3    1.4681E+02  1.4551E+00   1.4536E+02  0.000E+00  0.000E+00  0.000E+00  1.02969E+03  2.270E+00  5.522E+01  5.584E-01  8.685E-01
   1   13    6     8     1    1.8859E+02  9.7296E-01   1.8762E+02  0.000E+00  0.000E+00  0.000E+00  1.02494E+03  3.066E+00  4.446E+01  4.531E-01  7.158E-01
   1   13    5     8     2    1.8762E+02  1.8983E-01   1.8743E+02  0.000E+00  0.000E+00  0.000E+00  1.01869E+03  3.063E+00  4.441E+01  4.526E-01  1.398E-01
   1   13    4     8     3    1.8743E+02 -2.4513E+00   1.8988E+02  0.000E+00  0.000E+00  0.000E+00  1.01244E+03  3.070E+00  4.451E+01  4.536E+00 -1.801E-01
   1   13    3     8     4    1.8988E+02 -3.6384E+00   1.9352E+02  0.000E+00  0.000E+00  0.000E+00  1.00621E+03  3.088E+00  4.478E+01  4.563E+00 -2.658E-01
   1   13    2     8     5    1.9352E+02 -2.5844E+00   1.9610E+02  0.000E+00  0.000E+00  0.000E+00  9.99982E+02  3.107E+00  4.505E+01  4.591E+00 -1.876E-01
   1   13    1     8     6    1.9610E+02 -2.0154E+00   1.9812E+02  0.000E+00  0.000E+00  0.000E+00  9.94996E+02  3.121E+00  4.525E+01  2.767E+00 -2.428E-01
   1    8    6     9     1    7.3199E+00  0.0000E+00   7.3199E+00  0.000E+00  0.000E+00  0.000E+00  1.08063E+03  1.879E+00  4.000E+00  0.000E+00  1.626E+00
   1    8    5     9     2    7.3199E+00  0.0000E+00   7.3199E+00  0.000E+00  0.000E+00  0.000E+00  1.08013E+03  1.879E+00  4.000E+00  0.000E+00  1.626E+00





UNSATURATED ZONE PACKAGE VOLUMETRIC BUDGET FOR  TIME STEP    30 STRESS PERIOD   42
  ------------------------------------------------------------------------------



     CUMULATIVE VOLUMES      L**3       RATES FOR THIS TIME STEP      L**3/T
     ------------------                 ------------------------

           IN:                                      IN:
           ---                                      ---
        INFILTRATION =  1688828984.1448          INFILTRATION =          11.7275

          OUT:                                     OUT:
          ----                                     ----
              UZF ET =  1555042626.3644                UZF ET =          11.6075
        UZF RECHARGE =     1883440.3295          UZF RECHARGE =       0.0000E+00

            IN - OUT =   131902917.4509              IN - OUT =           0.1200

          STORAGE:                                 STORAGE:
          --------                                 --------
      STORAGE CHANGE =   131904754.7073        STORAGE CHANGE =           0.1200

 PERCENT DISCREPANCY IS DIFFERENCE BETWEEN IN-OUT MINUS CHANGE IN STORAGE
 DIVIDED BY THE AVERAGE OF IN AND OUT TIMES 100

 PERCENT DISCREPANCY =          -0.00     PERCENT DISCREPANCY =           0.00






1
  VOLUMETRIC BUDGET FOR ENTIRE MODEL AT END OF TIME STEP   30, STRESS PERIOD  42
  ------------------------------------------------------------------------------

     CUMULATIVE VOLUMES      L**3       RATES FOR THIS TIME STEP      L**3/T
     ------------------                 ------------------------

           IN:                                      IN:
           ---                                      ---
               AG WELLS  =   219671824.0000                 AG WELLS  =           0.0000
      DIVERSION SEGMENTS =   993806272.0000        DIVERSION SEGMENTS =           7.3199
           GW IRRIGATION =           0.0000             GW IRRIGATION =           0.0000
           SW IRRIGATION =           0.0000             SW IRRIGATION =           0.0000
        SYSTEM LOSSES GW =           0.0000          SYSTEM LOSSES GW =           0.0000
        SYSTEM LOSSES SW =           0.0000          SYSTEM LOSSES SW =           0.0000

                TOTAL IN =  1213478144.0000                  TOTAL IN =           7.3199

          OUT:                                     OUT:
          ----                                     ----
               AG WELLS  =           0.0000                 AG WELLS  =           0.0000
      DIVERSION SEGMENTS =           0.0000        DIVERSION SEGMENTS =           0.0000
           GW IRRIGATION =   219671824.0000             GW IRRIGATION =           0.0000
           SW IRRIGATION =   993825984.0000             SW IRRIGATION =           7.3200
        SYSTEM LOSSES GW =           0.0000          SYSTEM LOSSES GW =           0.0000
        SYSTEM LOSSES SW =           0.0000          SYSTEM LOSSES SW =           0.0000

               TOTAL OUT =  1213497856.0000                 TOTAL OUT =           7.3200

                IN - OUT =      -19712.0000                  IN - OUT =      -1.4639E-04

     PERCENT DISCREPANCY =          -0.00         PERCENT DISCREPANCY =          -0.00



1
  VOLUMETRIC BUDGET FOR ENTIRE MODEL AT END OF TIME STEP   30, STRESS PERIOD  42
  ------------------------------------------------------------------------------

     CUMULATIVE VOLUMES      L**3       RATES FOR THIS TIME STEP      L**3/T
     ------------------                 ------------------------

           IN:                                      IN:
           ---                                      ---
             STORAGE     =   383866336.0000               STORAGE     =           0.4328
       CONSTANT HEAD     =           0.0000         CONSTANT HEAD     =           0.0000
     HEAD DEP BOUNDS     =    30852460.0000       HEAD DEP BOUNDS     =           0.2863
      STREAM LEAKAGE     =  1292052352.0000        STREAM LEAKAGE     =          12.5003
        UZF RECHARGE     =     1883440.3750          UZF RECHARGE     =           0.0000
               GW ET     =           0.0000                 GW ET     =           0.0000
     SURFACE LEAKAGE     =           0.0000       SURFACE LEAKAGE     =           0.0000
           AG WELLS      =           0.0000             AG WELLS      =           0.0000

                TOTAL IN =  1708654592.0000                  TOTAL IN =          13.2194

          OUT:                                     OUT:
          ----                                     ----
             STORAGE     =   290994560.0000               STORAGE     =           2.2101
       CONSTANT HEAD     =           0.0000         CONSTANT HEAD     =           0.0000
     HEAD DEP BOUNDS     =    31389674.0000       HEAD DEP BOUNDS     =           0.2935
      STREAM LEAKAGE     =  1162829440.0000        STREAM LEAKAGE     =          10.6894
        UZF RECHARGE     =           0.0000          UZF RECHARGE     =           0.0000
               GW ET     =     3774775.0000                 GW ET     =       2.5252E-02
     SURFACE LEAKAGE     =           0.0000       SURFACE LEAKAGE     =           0.0000
           AG WELLS      =   219671824.0000             AG WELLS      =           0.0000

               TOTAL OUT =  1708660224.0000                 TOTAL OUT =          13.2183

                IN - OUT =       -5632.0000                  IN - OUT =       1.0681E-03

     PERCENT DISCREPANCY =          -0.00         PERCENT DISCREPANCY =           0.01






         TIME SUMMARY AT END OF TIME STEP   30 IN STRESS PERIOD   42
                    SECONDS     MINUTES      HOURS       DAYS        YEARS
                    -----------------------------------------------------------
   TIME STEP LENGTH  87667.      1461.1      24.352      1.0147     2.77799E-03
 STRESS PERIOD TIME 2.63000E+06  43833.      730.56      30.440     8.33397E-02
         TOTAL TIME 1.07916E+08 1.79859E+06  29977.      1249.0      3.4196    
1
1
                            STRESS PERIOD NO.   43, LENGTH =   2630000.    
                            -----------------------------------------------

                              NUMBER OF TIME STEPS =    30

                               MULTIPLIER FOR DELT =     1.000

                            INITIAL TIME STEP SIZE =   87666.66    

 REUSING NON-PARAMETER GHB CELLS FROM LAST STRESS PERIOD

      2 GHB CELLS

 REUSING STREAM SEGMENT DATA FROM LAST STRESS PERIOD



            AREAL INFILTRATION RATE
 READING ON UNIT   19 WITH FORMAT: (10F4.0)            

            1           2           3           4           5           6           7           8           9          10
 ........................................................................................................................
   1   1.2000E-09   0.000       0.000       0.000       0.000       0.000       0.000       0.000       0.000       0.000    
   2   2.1000E-09  2.0000E-09  8.0000E-10  8.5000E-09   0.000       0.000       0.000       0.000       0.000       0.000    
   3   5.0000E-10  1.1000E-09  8.8000E-09  5.5000E-09   0.000       0.000       0.000       0.000       0.000       0.000    
   4   8.5000E-09  1.1000E-09  1.1000E-09  1.1000E-09  2.0000E-09   0.000       0.000       0.000       0.000       0.000    
   5   8.5000E-09  1.1000E-09  1.1000E-09  1.1000E-09  1.1000E-09   0.000       0.000       0.000       0.000       0.000    
   6   8.5000E-09  5.2000E-09  2.1000E-09  1.1000E-09  1.5000E-09   0.000       0.000       0.000       0.000       0.000    
   7   8.5000E-09  5.2000E-09  2.1000E-09  1.2000E-09  2.0000E-09   0.000       0.000       0.000       0.000       0.000    
   8   5.0000E-10  5.2000E-09  2.1000E-09  1.2000E-09  5.0000E-09   0.000       0.000       0.000       0.000       0.000    
   9   5.0000E-10  5.2000E-09  2.1000E-09  1.2000E-09  5.0000E-09   0.000       0.000       0.000       0.000       0.000    
  10   5.0000E-10  5.2000E-09  2.1000E-09  1.2000E-09  5.8000E-09   0.000       0.000       0.000       0.000       0.000    
  11   1.0000E-10  1.1000E-09  1.1000E-09  1.2000E-09  5.0000E-09   0.000       0.000       0.000       0.000       0.000    
  12   1.1000E-09  1.1000E-09  1.1000E-09  1.1000E-09  2.0000E-09   0.000       0.000       0.000       0.000       0.000    
  13   1.1000E-09  2.2000E-09  2.2000E-09  2.1000E-09  1.0000E-09   0.000       0.000       0.000       0.000       0.000    
  14   2.0000E-10  5.5000E-09  5.5000E-09  5.2000E-09  1.0000E-09   0.000       0.000       0.000       0.000       0.000    
  15    0.000      8.8000E-09  8.8000E-09   0.000       0.000       0.000       0.000       0.000       0.000       0.000    

                  ET RATE =  1.500000E-07

 USING ET EXTINCTION DEPTH FROM PREVIOUS STRESS PERIOD. CURRENT PERIOD IS:      43

 USING EXTINCTION WATER CONTENT FROM PREVIOUS STRESS PERIOD. CURRENT PERIOD IS:      43

 USING AIR ENTRY PRESSURE FROM PREVIOUS STRESS PERIOD. CURRENT PERIOD IS:      43

 USING ROOT PRESSURE HEAD FROM PREVIOUS STRESS PERIOD. CURRENT PERIOD IS:      43

 USING ROOT ACTIVITY FROM PREVIOUS STRESS PERIOD. CURRENT PERIOD IS:      43

 PROCESSING AG STRESS PERIOD DATA

 READING AG STRESS PERIOD DATA

 READING IRRIGATION SEGMENT

 READING IRRIGATION WELL

 READING SUPPLEMENTAL WELL

 END PROCESSING AG STRESS PERIOD DATA OPTIONS
 
 SOLVING FOR HEAD 
                                                   Max.-Head-Change                         Max.-Flux-Residual
  Residual-Control   Outer-Iter.   Inner-Iter.     Column Row Layer    Maximum-Head-Change  Column Row Layer    Maximum-Flux-Residual          L2-NORM 
          0                 1           2             1    1     1       0.2528083815E-02       4   13    1         0.1456861485E+00      0.4035690882E+00
          0                 2           2             4   13     1      -0.6334695535E-02       4   13    1        -0.3741240954E+00      0.6454221122E+00
          0                 3           2             2   13     1      -0.1750381435E-03       2   13    1        -0.1014226394E-01      0.1793930992E-01
          0                 4           2             4   13     1      -0.3319447020E-03       4   13    1        -0.1959437025E-01      0.3395409915E-01
          0                 5           1             4   13     1      -0.5142364181E-04       4   13    1        -0.3035067909E-02      0.5331381207E-02

    ------------------------------------------------
       NWT REQUIRED            5 OUTER ITERATIONS 
       AND A TOTAL OF          9 INNER ITERATIONS.
    ------------------------------------------------

 NO OUTPUT CONTROL FOR STRESS PERIOD   43   TIME STEP    1
 
 SOLVING FOR HEAD 
                                                   Max.-Head-Change                         Max.-Flux-Residual
  Residual-Control   Outer-Iter.   Inner-Iter.     Column Row Layer    Maximum-Head-Change  Column Row Layer    Maximum-Flux-Residual          L2-NORM 
          0                 1           2             1    1     1       0.2303971672E-02       1    1    1         0.1195543545E+00      0.3534168321E+00
          0                 2           2             4   13     1      -0.7073127220E-02       4   13    1        -0.4173636044E+00      0.7215070545E+00
          0                 3           2             2   13     1      -0.1770178999E-03       2   13    1        -0.1025090273E-01      0.1786213992E-01
          0                 4           2             4   13     1      -0.4911179913E-03       4   13    1        -0.2896139838E-01      0.5024688775E-01
          0                 5           2             4   13     1      -0.2089019744E-03       4   13    1        -0.1231628637E-01      0.2149609813E-01
          0                 6           1             4   13     1       0.5012019703E-05       4   13    1         0.3045903177E-03      0.4988635937E-03

    ------------------------------------------------
       NWT REQUIRED            6 OUTER ITERATIONS 
       AND A TOTAL OF         11 INNER ITERATIONS.
    ------------------------------------------------

 NO OUTPUT CONTROL FOR STRESS PERIOD   43   TIME STEP    2
 
 SOLVING FOR HEAD 
                                                   Max.-Head-Change                         Max.-Flux-Residual
  Residual-Control   Outer-Iter.   Inner-Iter.     Column Row Layer    Maximum-Head-Change  Column Row Layer    Maximum-Flux-Residual          L2-NORM 
          0                 1           2             1    1     1       0.2302564740E-02       4   13    1         0.1309051457E+00      0.3880165873E+00
          0                 2           2             4   13     1      -0.7151605670E-02       4   13    1        -0.4219824262E+00      0.7300690836E+00
          0                 3           2             3   13     1      -0.4821708872E-03       3   13    1        -0.2837926165E-01      0.3233609619E-01
          0                 4           2             4   13     1      -0.4941004605E-03       4   13    1        -0.2912443256E-01      0.4986322746E-01
          0                 5           2             4   13     1      -0.2065241921E-03       4   13    1        -0.1216433693E-01      0.2127688019E-01
          0                 6           1             4   13     1       0.3794368066E-05       4   13    1         0.2304274085E-03      0.3731993498E-03

    ------------------------------------------------
       NWT REQUIRED            6 OUTER ITERATIONS 
       AND A TOTAL OF         11 INNER ITERATIONS.
    ------------------------------------------------

 NO OUTPUT CONTROL FOR STRESS PERIOD   43   TIME STEP    3
 
 SOLVING FOR HEAD 
                                                   Max.-Head-Change                         Max.-Flux-Residual
  Residual-Control   Outer-Iter.   Inner-Iter.     Column Row Layer    Maximum-Head-Change  Column Row Layer    Maximum-Flux-Residual          L2-NORM 
          0                 1           2             4   13     1       0.2870308682E-02       4   13    1         0.1654337155E+00      0.4195872333E+00
          0                 2           2             4   13     1      -0.7228657800E-02       4   13    1        -0.4261525921E+00      0.7364719297E+00
          0                 3           2             2   13     1      -0.1770162545E-03       2   13    1        -0.1024529773E-01      0.1760809160E-01
          0                 4           2             4   13     1      -0.4969230139E-03       4   13    1        -0.2927737959E-01      0.5076676738E-01
          0                 5           2             4   13     1      -0.2039300666E-03       4   13    1        -0.1201247931E-01      0.2096431032E-01
          0                 6           1             4   13     1       0.2606302481E-05       4   13    1         0.1585426535E-03      0.2472051806E-03

    ------------------------------------------------
       NWT REQUIRED            6 OUTER ITERATIONS 
       AND A TOTAL OF         11 INNER ITERATIONS.
    ------------------------------------------------

 NO OUTPUT CONTROL FOR STRESS PERIOD   43   TIME STEP    4
 
 SOLVING FOR HEAD 
                                                   Max.-Head-Change                         Max.-Flux-Residual
  Residual-Control   Outer-Iter.   Inner-Iter.     Column Row Layer    Maximum-Head-Change  Column Row Layer    Maximum-Flux-Residual          L2-NORM 
          0                 1           2             4   13     1       0.3409423398E-02       4   13    1         0.1965835001E+00      0.4497400169E+00
          0                 2           2             4   13     1      -0.7292164261E-02       4   13    1        -0.4299131944E+00      0.7420570515E+00
          0                 3           2             2   13     1      -0.1765863246E-03       2   13    1        -0.1022007682E-01      0.1755528681E-01
          0                 4           2             4   13     1      -0.4994048447E-03       4   13    1        -0.2942375577E-01      0.5100797806E-01
          0                 5           2             4   13     1      -0.2013185633E-03       4   13    1        -0.1185862945E-01      0.2069537400E-01
          0                 6           1             4   13     1       0.1432184678E-05       4   13    1         0.8742106456E-04      0.1296136599E-03

    ------------------------------------------------
       NWT REQUIRED            6 OUTER ITERATIONS 
       AND A TOTAL OF         11 INNER ITERATIONS.
    ------------------------------------------------

 NO OUTPUT CONTROL FOR STRESS PERIOD   43   TIME STEP    5
 
 SOLVING FOR HEAD 
                                                   Max.-Head-Change                         Max.-Flux-Residual
  Residual-Control   Outer-Iter.   Inner-Iter.     Column Row Layer    Maximum-Head-Change  Column Row Layer    Maximum-Flux-Residual          L2-NORM 
          0                 1           2             4   13     1       0.3896039263E-02       4   13    1         0.2246890984E+00      0.4797857549E+00
          0                 2           2             4   13     1      -0.7349436112E-02       4   13    1        -0.4333034338E+00      0.7471877627E+00
          0                 3           2             2   13     1      -0.1763293131E-03       2   13    1        -0.1020499886E-01      0.1752231933E-01
          0                 4           2             4   13     1      -0.5017865671E-03       4   13    1        -0.2956419690E-01      0.5124172809E-01
          0                 5           2             4   13     1      -0.1986985016E-03       4   13    1        -0.1170429931E-01      0.2042605721E-01
          0                 6           1             5   13     1      -0.7600185113E-06       5   13    1        -0.4409667190E-04      0.5136594569E-04

    ------------------------------------------------
       NWT REQUIRED            6 OUTER ITERATIONS 
       AND A TOTAL OF         11 INNER ITERATIONS.
    ------------------------------------------------

 NO OUTPUT CONTROL FOR STRESS PERIOD   43   TIME STEP    6
 
 SOLVING FOR HEAD 
                                                   Max.-Head-Change                         Max.-Flux-Residual
  Residual-Control   Outer-Iter.   Inner-Iter.     Column Row Layer    Maximum-Head-Change  Column Row Layer    Maximum-Flux-Residual          L2-NORM 
          0                 1           2             4   13     1       0.4335613168E-02       4   13    1         0.2500678277E+00      0.5089912302E+00
          0                 2           2             4   13     1      -0.7409762550E-02       4   13    1        -0.4368698271E+00      0.7527806803E+00
          0                 3           2             2   13     1      -0.1704600416E-03       2   13    1        -0.9865205517E-02      0.1690601231E-01
          0                 4           2             4   13     1      -0.5012467950E-03       4   13    1        -0.2953247289E-01      0.5117877853E-01
          0                 5           2             4   13     1      -0.1969153423E-03       4   13    1        -0.1159925786E-01      0.2024214798E-01
          0                 6           1             5   13     1      -0.8192697383E-06       5   13    1        -0.4717039747E-04      0.6687240258E-04

    ------------------------------------------------
       NWT REQUIRED            6 OUTER ITERATIONS 
       AND A TOTAL OF         11 INNER ITERATIONS.
    ------------------------------------------------

 NO OUTPUT CONTROL FOR STRESS PERIOD   43   TIME STEP    7
 
 SOLVING FOR HEAD 
                                                   Max.-Head-Change                         Max.-Flux-Residual
  Residual-Control   Outer-Iter.   Inner-Iter.     Column Row Layer    Maximum-Head-Change  Column Row Layer    Maximum-Flux-Residual          L2-NORM 
          0                 1           2             4   13     1       0.4732659614E-02       4   13    1         0.2729820241E+00      0.5369544368E+00
          0                 2           2             4   13     1      -0.7453302669E-02       4   13    1        -0.4394465877E+00      0.7567944752E+00
          0                 3           2             2   13     1      -0.1725915510E-03       2   13    1        -0.9988261796E-02      0.1712551866E-01
          0                 4           2             4   13     1      -0.5044470046E-03       4   13    1        -0.2972108464E-01      0.5150158705E-01
          0                 5           2             4   13     1      -0.1940184823E-03       4   13    1        -0.1142862570E-01      0.1994257542E-01
          0                 6           1             2   13     1      -0.1892965585E-05       2   13    1        -0.1095424068E-03      0.1864318104E-03

    ------------------------------------------------
       NWT REQUIRED            6 OUTER ITERATIONS 
       AND A TOTAL OF         11 INNER ITERATIONS.
    ------------------------------------------------

 NO OUTPUT CONTROL FOR STRESS PERIOD   43   TIME STEP    8
 
 SOLVING FOR HEAD 
                                                   Max.-Head-Change                         Max.-Flux-Residual
  Residual-Control   Outer-Iter.   Inner-Iter.     Column Row Layer    Maximum-Head-Change  Column Row Layer    Maximum-Flux-Residual          L2-NORM 
          0                 1           2             4   13     1       0.5091668511E-02       4   13    1         0.2936926117E+00      0.5634509139E+00
          0                 2           2             4   13     1      -0.7492537493E-02       4   13    1        -0.4417676814E+00      0.7604815954E+00
          0                 3           2             2   13     1      -0.1747231242E-03       2   13    1        -0.1011138214E-01      0.1734482778E-01
          0                 4           2             4   13     1      -0.5074660755E-03       4   13    1        -0.2989900774E-01      0.5180705672E-01
          0                 5           2             4   13     1      -0.1910518871E-03       4   13    1        -0.1125382106E-01      0.1964268046E-01
          0                 6           1             2   13     1      -0.3169619690E-05       2   13    1        -0.1833535944E-03      0.3208905809E-03

    ------------------------------------------------
       NWT REQUIRED            6 OUTER ITERATIONS 
       AND A TOTAL OF         11 INNER ITERATIONS.
    ------------------------------------------------

 NO OUTPUT CONTROL FOR STRESS PERIOD   43   TIME STEP    9
 
 SOLVING FOR HEAD 
                                                   Max.-Head-Change                         Max.-Flux-Residual
  Residual-Control   Outer-Iter.   Inner-Iter.     Column Row Layer    Maximum-Head-Change  Column Row Layer    Maximum-Flux-Residual          L2-NORM 
          0                 1           2             4   13     1       0.5416334151E-02       4   13    1         0.3124141027E+00      0.5883924668E+00
          0                 2           2             4   13     1      -0.6860943231E-02       4   13    1        -0.4046477276E+00      0.6958862460E+00
          0                 3           2             2   13     1      -0.7466113316E-03       4   13    1        -0.4393362899E-01      0.7785180404E-01
          0                 4           2             4   13     1      -0.5293756052E-03       4   13    1        -0.3119261472E-01      0.5414543178E-01
          0                 5           2             4   13     1      -0.2182815908E-03       4   13    1        -0.1286154644E-01      0.2240299155E-01
          0                 6           1             4   13     1      -0.3066967490E-04       4   13    1        -0.1807339482E-02      0.3166461229E-02

    ------------------------------------------------
       NWT REQUIRED            6 OUTER ITERATIONS 
       AND A TOTAL OF         11 INNER ITERATIONS.
    ------------------------------------------------

 NO OUTPUT CONTROL FOR STRESS PERIOD   43   TIME STEP   10
 
 SOLVING FOR HEAD 
                                                   Max.-Head-Change                         Max.-Flux-Residual
  Residual-Control   Outer-Iter.   Inner-Iter.     Column Row Layer    Maximum-Head-Change  Column Row Layer    Maximum-Flux-Residual          L2-NORM 
          0                 1           2             4   13     1       0.5710176419E-02       4   13    1         0.3293508863E+00      0.6117634791E+00
          0                 2           2             4   13     1      -0.6885226513E-02       4   13    1        -0.4060858071E+00      0.6982246241E+00
          0                 3           2             2   13     1      -0.7547462900E-03       4   13    1        -0.4441875966E-01      0.7870928960E-01
          0                 4           2             4   13     1      -0.5339895699E-03       4   13    1        -0.3146449702E-01      0.5461840360E-01
          0                 5           2             4   13     1      -0.2150596159E-03       4   13    1        -0.1267173535E-01      0.2207512711E-01
          0                 6           1             4   13     1      -0.3173677527E-04       4   13    1        -0.1870203312E-02      0.3273550810E-02

    ------------------------------------------------
       NWT REQUIRED            6 OUTER ITERATIONS 
       AND A TOTAL OF         11 INNER ITERATIONS.
    ------------------------------------------------

 NO OUTPUT CONTROL FOR STRESS PERIOD   43   TIME STEP   11
 
 SOLVING FOR HEAD 
                                                   Max.-Head-Change                         Max.-Flux-Residual
  Residual-Control   Outer-Iter.   Inner-Iter.     Column Row Layer    Maximum-Head-Change  Column Row Layer    Maximum-Flux-Residual          L2-NORM 
          0                 1           2             4   13     1       0.5976209672E-02       4   13    1         0.3446780706E+00      0.6335837594E+00
          0                 2           2             4   13     1      -0.6906242806E-02       4   13    1        -0.4073300896E+00      0.7002968286E+00
          0                 3           2             2   13     1      -0.7629999473E-03       4   13    1        -0.4491151128E-01      0.7957832242E-01
          0                 4           2             4   13     1      -0.5385324011E-03       4   13    1        -0.3173219340E-01      0.5508377286E-01
          0                 5           2             4   13     1      -0.2118769956E-03       4   13    1        -0.1248423284E-01      0.2175110565E-01
          0                 6           1             4   13     1      -0.3270234578E-04       4   13    1        -0.1927081804E-02      0.3372390769E-02

    ------------------------------------------------
       NWT REQUIRED            6 OUTER ITERATIONS 
       AND A TOTAL OF         11 INNER ITERATIONS.
    ------------------------------------------------

 NO OUTPUT CONTROL FOR STRESS PERIOD   43   TIME STEP   12
 
 SOLVING FOR HEAD 
                                                   Max.-Head-Change                         Max.-Flux-Residual
  Residual-Control   Outer-Iter.   Inner-Iter.     Column Row Layer    Maximum-Head-Change  Column Row Layer    Maximum-Flux-Residual          L2-NORM 
          0                 1           2             4   13     1       0.6217086014E-02       4   13    1         0.3585495067E+00      0.6539035703E+00
          0                 2           2             4   13     1      -0.6924179804E-02       4   13    1        -0.4083918462E+00      0.7021086008E+00
          0                 3           2             2   13     1      -0.7715212321E-03       4   13    1        -0.4542298088E-01      0.8047593295E-01
          0                 4           2             4   13     1      -0.5429389851E-03       4   13    1        -0.3199183233E-01      0.5553675562E-01
          0                 5           2             4   13     1      -0.2087312128E-03       4   13    1        -0.1229890815E-01      0.2143126217E-01
          0                 6           1             4   13     1      -0.3363010276E-04       4   13    1        -0.1981723618E-02      0.3466254622E-02

    ------------------------------------------------
       NWT REQUIRED            6 OUTER ITERATIONS 
       AND A TOTAL OF         11 INNER ITERATIONS.
    ------------------------------------------------

 NO OUTPUT CONTROL FOR STRESS PERIOD   43   TIME STEP   13
 
 SOLVING FOR HEAD 
                                                   Max.-Head-Change                         Max.-Flux-Residual
  Residual-Control   Outer-Iter.   Inner-Iter.     Column Row Layer    Maximum-Head-Change  Column Row Layer    Maximum-Flux-Residual          L2-NORM 
          0                 1           2             4   13     1       0.6435374056E-02       4   13    1         0.3711144150E+00      0.6727960484E+00
          0                 2           2             4   13     1      -0.6939480451E-02       4   13    1        -0.4092972881E+00      0.7036995697E+00
          0                 3           2             2   13     1      -0.7800990884E-03       4   13    1        -0.4594175972E-01      0.8138172676E-01
          0                 4           2             4   13     1      -0.5472268775E-03       4   13    1        -0.3224444567E-01      0.5598096331E-01
          0                 5           2             4   13     1      -0.2056290953E-03       4   13    1        -0.1211617085E-01      0.2111403540E-01
          0                 6           1             4   13     1      -0.3450722024E-04       4   13    1        -0.2033384200E-02      0.3554678829E-02

    ------------------------------------------------
       NWT REQUIRED            6 OUTER ITERATIONS 
       AND A TOTAL OF         11 INNER ITERATIONS.
    ------------------------------------------------

 NO OUTPUT CONTROL FOR STRESS PERIOD   43   TIME STEP   14
 
 SOLVING FOR HEAD 
                                                   Max.-Head-Change                         Max.-Flux-Residual
  Residual-Control   Outer-Iter.   Inner-Iter.     Column Row Layer    Maximum-Head-Change  Column Row Layer    Maximum-Flux-Residual          L2-NORM 
          0                 1           2             4   13     1       0.6633241368E-02       4   13    1         0.3824983797E+00      0.6903385321E+00
          0                 2           2             4   13     1      -0.6952377449E-02       4   13    1        -0.4100602756E+00      0.7050832204E+00
          0                 3           2             2   13     1      -0.7887389835E-03       4   13    1        -0.4644354940E-01      0.8240693256E-01
          0                 4           2             4   13     1      -0.5514978012E-03       4   13    1        -0.3249539669E-01      0.5642396865E-01
          0                 5           2             4   13     1      -0.2025288118E-03       4   13    1        -0.1193171990E-01      0.2080887309E-01
          0                 6           1             4   13     1      -0.3533598740E-04       4   13    1        -0.2081690940E-02      0.3643248262E-02

    ------------------------------------------------
       NWT REQUIRED            6 OUTER ITERATIONS 
       AND A TOTAL OF         11 INNER ITERATIONS.
    ------------------------------------------------

 NO OUTPUT CONTROL FOR STRESS PERIOD   43   TIME STEP   15
 
 SOLVING FOR HEAD 
                                                   Max.-Head-Change                         Max.-Flux-Residual
  Residual-Control   Outer-Iter.   Inner-Iter.     Column Row Layer    Maximum-Head-Change  Column Row Layer    Maximum-Flux-Residual          L2-NORM 
          0                 1           2             4   13     1       0.6812713821E-02       4   13    1         0.3928189440E+00      0.7066143730E+00
          0                 2           2             4   13     1      -0.6963103730E-02       4   13    1        -0.4106946191E+00      0.7062792498E+00
          0                 3           2             2   13     1      -0.7974797574E-03       4   13    1        -0.4697452911E-01      0.8332868271E-01
          0                 4           2             4   13     1      -0.5555149016E-03       4   13    1        -0.3273195229E-01      0.5685042694E-01
          0                 5           2             4   13     1      -0.1996081141E-03       4   13    1        -0.1175972314E-01      0.2050228181E-01
          0                 6           1             4   13     1      -0.3611116177E-04       4   13    1        -0.2127352200E-02      0.3721229952E-02

    ------------------------------------------------
       NWT REQUIRED            6 OUTER ITERATIONS 
       AND A TOTAL OF         11 INNER ITERATIONS.
    ------------------------------------------------

 NO OUTPUT CONTROL FOR STRESS PERIOD   43   TIME STEP   16
 
 SOLVING FOR HEAD 
                                                   Max.-Head-Change                         Max.-Flux-Residual
  Residual-Control   Outer-Iter.   Inner-Iter.     Column Row Layer    Maximum-Head-Change  Column Row Layer    Maximum-Flux-Residual          L2-NORM 
          0                 1           2             4   13     1       0.6975542440E-02       4   13    1         0.4021777679E+00      0.7217061356E+00
          0                 2           2             4   13     1      -0.6971857255E-02       4   13    1        -0.4112121648E+00      0.7072969612E+00
          0                 3           2             4   13     1      -0.8063931569E-03       4   13    1        -0.4751301333E-01      0.8425887249E-01
          0                 4           2             4   13     1      -0.5597467666E-03       4   13    1        -0.3298131872E-01      0.5727906875E-01
          0                 5           2             4   13     1      -0.1964206102E-03       4   13    1        -0.1157182638E-01      0.2018779390E-01
          0                 6           1             4   13     1      -0.3685021075E-04       4   13    1        -0.2170910871E-02      0.3796768717E-02

    ------------------------------------------------
       NWT REQUIRED            6 OUTER ITERATIONS 
       AND A TOTAL OF         11 INNER ITERATIONS.
    ------------------------------------------------

 NO OUTPUT CONTROL FOR STRESS PERIOD   43   TIME STEP   17
 
 SOLVING FOR HEAD 
                                                   Max.-Head-Change                         Max.-Flux-Residual
  Residual-Control   Outer-Iter.   Inner-Iter.     Column Row Layer    Maximum-Head-Change  Column Row Layer    Maximum-Flux-Residual          L2-NORM 
          0                 1           2             4   13     1       0.7123448635E-02       4   13    1         0.4106745194E+00      0.7356955185E+00
          0                 2           2             4   13     1      -0.6978846123E-02       4   13    1        -0.4116251993E+00      0.7081548510E+00
          0                 3           2             4   13     1      -0.8156239632E-03       4   13    1        -0.4805706222E-01      0.8520213826E-01
          0                 4           2             4   13     1      -0.5637723609E-03       4   13    1        -0.3321846518E-01      0.5769484346E-01
          0                 5           2             4   13     1      -0.1934079614E-03       4   13    1        -0.1139433367E-01      0.1988126528E-01
          0                 6           1             4   13     1      -0.3756413936E-04       4   13    1        -0.2212966953E-02      0.3868907707E-02

    ------------------------------------------------
       NWT REQUIRED            6 OUTER ITERATIONS 
       AND A TOTAL OF         11 INNER ITERATIONS.
    ------------------------------------------------

 NO OUTPUT CONTROL FOR STRESS PERIOD   43   TIME STEP   18
 
 SOLVING FOR HEAD 
                                                   Max.-Head-Change                         Max.-Flux-Residual
  Residual-Control   Outer-Iter.   Inner-Iter.     Column Row Layer    Maximum-Head-Change  Column Row Layer    Maximum-Flux-Residual          L2-NORM 
          0                 1           2             4   13     1       0.7257791134E-02       4   13    1         0.4183879279E+00      0.7486557295E+00
          0                 2           2             4   13     1      -0.6984204470E-02       4   13    1        -0.4119417194E+00      0.7088643391E+00
          0                 3           2             4   13     1      -0.8227759287E-03       4   13    1        -0.4847864202E-01      0.8593308380E-01
          0                 4           2             4   13     1      -0.5681406640E-03       4   13    1        -0.3347581542E-01      0.5814626895E-01
          0                 5           2             4   13     1      -0.1894198107E-03       4   13    1        -0.1115938638E-01      0.1947497465E-01
          0                 6           1             4   13     1      -0.3843910181E-04       4   13    1        -0.2264499991E-02      0.3959062696E-02

    ------------------------------------------------
       NWT REQUIRED            6 OUTER ITERATIONS 
       AND A TOTAL OF         11 INNER ITERATIONS.
    ------------------------------------------------

 NO OUTPUT CONTROL FOR STRESS PERIOD   43   TIME STEP   19
 
 SOLVING FOR HEAD 
                                                   Max.-Head-Change                         Max.-Flux-Residual
  Residual-Control   Outer-Iter.   Inner-Iter.     Column Row Layer    Maximum-Head-Change  Column Row Layer    Maximum-Flux-Residual          L2-NORM 
          0                 1           2             4   13     1       0.7379672045E-02       4   13    1         0.4253820044E+00      0.7606486713E+00
          0                 2           2             4   13     1      -0.6988757236E-02       4   13    1        -0.4122103348E+00      0.7095015295E+00
          0                 3           2             4   13     1      -0.8331151412E-03       4   13    1        -0.4908803891E-01      0.8698696076E-01
          0                 4           2             4   13     1      -0.5714470211E-03       4   13    1        -0.3367054146E-01      0.5849157498E-01
          0                 5           2             4   13     1      -0.1858929844E-03       4   13    1        -0.1095158176E-01      0.1911667848E-01
          0                 6           1             4   13     1      -0.3915446090E-04       4   13    1        -0.2306652099E-02      0.4031486440E-02

    ------------------------------------------------
       NWT REQUIRED            6 OUTER ITERATIONS 
       AND A TOTAL OF         11 INNER ITERATIONS.
    ------------------------------------------------

 NO OUTPUT CONTROL FOR STRESS PERIOD   43   TIME STEP   20
 
 SOLVING FOR HEAD 
                                                   Max.-Head-Change                         Max.-Flux-Residual
  Residual-Control   Outer-Iter.   Inner-Iter.     Column Row Layer    Maximum-Head-Change  Column Row Layer    Maximum-Flux-Residual          L2-NORM 
          0                 1           2             4   13     1       0.7490628921E-02       4   13    1         0.4317456665E+00      0.7717643942E+00
          0                 2           2             4   13     1      -0.6991930351E-02       4   13    1        -0.4123973668E+00      0.7100073683E+00
          0                 3           2             4   13     1      -0.8433470445E-03       4   13    1        -0.4969112857E-01      0.8803002860E-01
          0                 4           2             4   13     1      -0.5748096147E-03       4   13    1        -0.3386859502E-01      0.5884049793E-01
          0                 5           2             4   13     1      -0.1825699113E-03       4   13    1        -0.1075579694E-01      0.1877817021E-01
          0                 6           1             4   13     1      -0.3979209826E-04       4   13    1        -0.2344210172E-02      0.4096666278E-02

    ------------------------------------------------
       NWT REQUIRED            6 OUTER ITERATIONS 
       AND A TOTAL OF         11 INNER ITERATIONS.
    ------------------------------------------------

 NO OUTPUT CONTROL FOR STRESS PERIOD   43   TIME STEP   21
 
 SOLVING FOR HEAD 
                                                   Max.-Head-Change                         Max.-Flux-Residual
  Residual-Control   Outer-Iter.   Inner-Iter.     Column Row Layer    Maximum-Head-Change  Column Row Layer    Maximum-Flux-Residual          L2-NORM 
          0                 1           2             4   13     1       0.7591585682E-02       4   13    1         0.4375324575E+00      0.7820688429E+00
          0                 2           2             4   13     1      -0.6993761373E-02       4   13    1        -0.4125050822E+00      0.7103823753E+00
          0                 3           2             4   13     1      -0.8535078570E-03       4   13    1        -0.5029004068E-01      0.8906617764E-01
          0                 4           2             4   13     1      -0.5782041241E-03       4   13    1        -0.3406851573E-01      0.5919390947E-01
          0                 5           2             4   13     1      -0.1794045477E-03       4   13    1        -0.1056930194E-01      0.1845568749E-01
          0                 6           1             4   13     1      -0.4035529685E-04       4   13    1        -0.2377349696E-02      0.4156299175E-02

    ------------------------------------------------
       NWT REQUIRED            6 OUTER ITERATIONS 
       AND A TOTAL OF         11 INNER ITERATIONS.
    ------------------------------------------------

 NO OUTPUT CONTROL FOR STRESS PERIOD   43   TIME STEP   22
 
 SOLVING FOR HEAD 
                                                   Max.-Head-Change                         Max.-Flux-Residual
  Residual-Control   Outer-Iter.   Inner-Iter.     Column Row Layer    Maximum-Head-Change  Column Row Layer    Maximum-Flux-Residual          L2-NORM 
          0                 1           2             4   13     1       0.7683644835E-02       4   13    1         0.4428061803E+00      0.7916195358E+00
          0                 2           2             4   13     1      -0.6984571808E-02       4   13    1        -0.4119643452E+00      0.7096373623E+00
          0                 3           2             4   13     1      -0.8753556813E-03       4   13    1        -0.5157775192E-01      0.9129246009E-01
          0                 4           2             4   13     1      -0.5784606649E-03       4   13    1        -0.3408355210E-01      0.5922938630E-01
          0                 5           2             4   13     1      -0.1775764364E-03       4   13    1        -0.1046160418E-01      0.1826834965E-01
          0                 6           1             4   13     1      -0.4102538676E-04       4   13    1        -0.2416864907E-02      0.4222792139E-02

    ------------------------------------------------
       NWT REQUIRED            6 OUTER ITERATIONS 
       AND A TOTAL OF         11 INNER ITERATIONS.
    ------------------------------------------------

 NO OUTPUT CONTROL FOR STRESS PERIOD   43   TIME STEP   23
 
 SOLVING FOR HEAD 
                                                   Max.-Head-Change                         Max.-Flux-Residual
  Residual-Control   Outer-Iter.   Inner-Iter.     Column Row Layer    Maximum-Head-Change  Column Row Layer    Maximum-Flux-Residual          L2-NORM 
          0                 1           2             4   13     1       0.7767544618E-02       4   13    1         0.4476096049E+00      0.8004798132E+00
          0                 2           2             4   13     1      -0.6989290448E-02       4   13    1        -0.4122412797E+00      0.7103103611E+00
          0                 3           2             4   13     1      -0.8791384580E-03       4   13    1        -0.5180082154E-01      0.9167555146E-01
          0                 4           2             4   13     1      -0.5840067316E-03       4   13    1        -0.3441024843E-01      0.5980149174E-01
          0                 5           2             4   13     1      -0.1738999831E-03       4   13    1        -0.1024498465E-01      0.1789485325E-01
          0                 6           1             4   13     1      -0.4138003705E-04       4   13    1        -0.2437755866E-02      0.4258534708E-02

    ------------------------------------------------
       NWT REQUIRED            6 OUTER ITERATIONS 
       AND A TOTAL OF         11 INNER ITERATIONS.
    ------------------------------------------------

 NO OUTPUT CONTROL FOR STRESS PERIOD   43   TIME STEP   24
 
 SOLVING FOR HEAD 
                                                   Max.-Head-Change                         Max.-Flux-Residual
  Residual-Control   Outer-Iter.   Inner-Iter.     Column Row Layer    Maximum-Head-Change  Column Row Layer    Maximum-Flux-Residual          L2-NORM 
          0                 1           2             4   13     1       0.7844084010E-02       4   13    1         0.4519890154E+00      0.8086951609E+00
          0                 2           2             4   13     1      -0.6992567230E-02       4   13    1        -0.4124331836E+00      0.7108379416E+00
          0                 3           2             4   13     1      -0.8760702532E-03       4   13    1        -0.5162027120E-01      0.9135860908E-01
          0                 4           2             4   13     1      -0.5912340404E-03       4   13    1        -0.3483610108E-01      0.6054270389E-01
          0                 5           2             4   13     1      -0.1671151931E-03       4   13    1        -0.9845279656E-02      0.1720364176E-01
          0                 6           1             4   13     1      -0.4233538827E-04       4   13    1        -0.2494054971E-02      0.4354867910E-02

    ------------------------------------------------
       NWT REQUIRED            6 OUTER ITERATIONS 
       AND A TOTAL OF         11 INNER ITERATIONS.
    ------------------------------------------------

 NO OUTPUT CONTROL FOR STRESS PERIOD   43   TIME STEP   25
 
 SOLVING FOR HEAD 
                                                   Max.-Head-Change                         Max.-Flux-Residual
  Residual-Control   Outer-Iter.   Inner-Iter.     Column Row Layer    Maximum-Head-Change  Column Row Layer    Maximum-Flux-Residual          L2-NORM 
          0                 1           2             4   13     1       0.7913169090E-02       4   13    1         0.4559387832E+00      0.8162543931E+00
          0                 2           2             4   13     1      -0.6991745868E-02       4   13    1        -0.4123838217E+00      0.7109484879E+00
          0                 3           2             4   13     1      -0.8879857730E-03       4   13    1        -0.5232261468E-01      0.9256908449E-01
          0                 4           2             4   13     1      -0.5931848577E-03       4   13    1        -0.3495092243E-01      0.6075021565E-01
          0                 5           2             4   13     1      -0.1620501495E-03       4   13    1        -0.9546872426E-02      0.1668241801E-01
          0                 6           1             4   13     1      -0.4303981837E-04       4   13    1        -0.2535550455E-02      0.4430377283E-02

    ------------------------------------------------
       NWT REQUIRED            6 OUTER ITERATIONS 
       AND A TOTAL OF         11 INNER ITERATIONS.
    ------------------------------------------------

 NO OUTPUT CONTROL FOR STRESS PERIOD   43   TIME STEP   26
 
 SOLVING FOR HEAD 
                                                   Max.-Head-Change                         Max.-Flux-Residual
  Residual-Control   Outer-Iter.   Inner-Iter.     Column Row Layer    Maximum-Head-Change  Column Row Layer    Maximum-Flux-Residual          L2-NORM 
          0                 1           2             4   13     1       0.7976192271E-02       4   13    1         0.4595395891E+00      0.8232617633E+00
          0                 2           2             4   13     1      -0.6990142109E-02       4   13    1        -0.4122883011E+00      0.7109753696E+00
          0                 3           2             4   13     1      -0.8999306381E-03       4   13    1        -0.5302666441E-01      0.9378575908E-01
          0                 4           2             4   13     1      -0.5950731256E-03       4   13    1        -0.3506206970E-01      0.6094971669E-01
          0                 5           2             4   13     1      -0.1570408144E-03       4   13    1        -0.9251746570E-02      0.1617461422E-01
          0                 6           1             4   13     1      -0.4367372352E-04       4   13    1        -0.2572894932E-02      0.4490931240E-02

    ------------------------------------------------
       NWT REQUIRED            6 OUTER ITERATIONS 
       AND A TOTAL OF         11 INNER ITERATIONS.
    ------------------------------------------------

 NO OUTPUT CONTROL FOR STRESS PERIOD   43   TIME STEP   27
 
 SOLVING FOR HEAD 
                                                   Max.-Head-Change                         Max.-Flux-Residual
  Residual-Control   Outer-Iter.   Inner-Iter.     Column Row Layer    Maximum-Head-Change  Column Row Layer    Maximum-Flux-Residual          L2-NORM 
          0                 1           2             4   13     1       0.8033903573E-02       4   13    1         0.4628347504E+00      0.8297706820E+00
          0                 2           2             4   13     1      -0.6987867475E-02       4   13    1        -0.4121532027E+00      0.7109292640E+00
          0                 3           2             4   13     1      -0.9120194284E-03       4   13    1        -0.5373920543E-01      0.9501716793E-01
          0                 4           2             4   13     1      -0.5968803535E-03       4   13    1        -0.3516845079E-01      0.6113962769E-01
          0                 5           2             4   13     1      -0.1521071549E-03       4   13    1        -0.8961070651E-02      0.1567045850E-01
          0                 6           1             4   13     1      -0.4423020950E-04       4   13    1        -0.2605689420E-02      0.4546971893E-02

    ------------------------------------------------
       NWT REQUIRED            6 OUTER ITERATIONS 
       AND A TOTAL OF         11 INNER ITERATIONS.
    ------------------------------------------------

 NO OUTPUT CONTROL FOR STRESS PERIOD   43   TIME STEP   28
 
 SOLVING FOR HEAD 
                                                   Max.-Head-Change                         Max.-Flux-Residual
  Residual-Control   Outer-Iter.   Inner-Iter.     Column Row Layer    Maximum-Head-Change  Column Row Layer    Maximum-Flux-Residual          L2-NORM 
          0                 1           2             4   13     1       0.8086594015E-02       4   13    1         0.4658412167E+00      0.8358064156E+00
          0                 2           2             4   13     1      -0.6984912887E-02       4   13    1        -0.4119778524E+00      0.7108186521E+00
          0                 3           2             4   13     1      -0.9242890022E-03       4   13    1        -0.5446256453E-01      0.9625785375E-01
          0                 4           2             4   13     1      -0.5985721084E-03       4   13    1        -0.3526800416E-01      0.6132036351E-01
          0                 5           2             4   13     1      -0.1472450008E-03       4   13    1        -0.8674614768E-02      0.1517345142E-01
          0                 6           1             4   13     1      -0.4472057716E-04       4   13    1        -0.2634577627E-02      0.4596089400E-02

    ------------------------------------------------
       NWT REQUIRED            6 OUTER ITERATIONS 
       AND A TOTAL OF         11 INNER ITERATIONS.
    ------------------------------------------------

 NO OUTPUT CONTROL FOR STRESS PERIOD   43   TIME STEP   29
 
 SOLVING FOR HEAD 
                                                   Max.-Head-Change                         Max.-Flux-Residual
  Residual-Control   Outer-Iter.   Inner-Iter.     Column Row Layer    Maximum-Head-Change  Column Row Layer    Maximum-Flux-Residual          L2-NORM 
          0                 1           2             4   13     1       0.8134868971E-02       4   13    1         0.4685937537E+00      0.8414156864E+00
          0                 2           2             4   13     1      -0.6981365426E-02       4   13    1        -0.4117678619E+00      0.7106274400E+00
          0                 3           2             4   13     1      -0.9367119139E-03       4   13    1        -0.5519463596E-01      0.9752950668E-01
          0                 4           2             4   13     1      -0.6001862208E-03       4   13    1        -0.3536301436E-01      0.6149072131E-01
          0                 5           2             4   13     1      -0.1424614829E-03       4   13    1        -0.8392793184E-02      0.1468412969E-01
          0                 6           1             4   13     1      -0.4512647922E-04       4   13    1        -0.2658492044E-02      0.4637500255E-02

    ------------------------------------------------
       NWT REQUIRED            6 OUTER ITERATIONS 
       AND A TOTAL OF         11 INNER ITERATIONS.
    ------------------------------------------------

 NO OUTPUT CONTROL FOR STRESS PERIOD   43   TIME STEP   30



 STREAM LISTING     PERIOD     43   STEP       30

 LAYER ROW COL. STREAM  RCH.  FLOW INTO     FLOW TO   FLOW OUT OF   OVRLND.     DIRECT     STREAM       STREAM     STREAM     STREAM   STREAMBED  STREAMBED
                SEG.NO.  NO.  STRM. RCH.    AQUIFER    STRM. RCH.    RUNOFF     PRECIP       ET          HEAD       DEPTH      WIDTH   CONDCTNC.   GRADIENT

   1    1    1     1     1    4.3499E+01  3.1564E-01   4.3183E+01  0.000E+00  0.000E+00  0.000E+00  1.09440E+03  1.356E+00  1.610E+01  7.246E-02  1.452E+00
   1    2    2     1     2    4.3183E+01  4.8894E-01   4.2694E+01  0.000E+00  0.000E+00  0.000E+00  1.08941E+03  1.354E+00  1.604E+01  1.123E-01  1.451E+00
   1    3    3     1     3    4.2694E+01  4.1710E-01   4.2277E+01  0.000E+00  0.000E+00  0.000E+00  1.08377E+03  1.350E+00  1.598E+01  9.588E-02  1.450E+00
   1    3    4     1     4    4.2277E+01  3.8418E-01   4.1893E+01  0.000E+00  0.000E+00  0.000E+00  1.07876E+03  1.347E+00  1.592E+01  8.837E-02  1.449E+00
   1    4    5     2     1    3.9893E+01  3.5834E-01   3.9534E+01  0.000E+00  0.000E+00  0.000E+00  1.07353E+03  1.594E+00  1.200E+01  7.800E-02  1.531E+00
   1    5    6     2     2    3.9534E+01  2.7519E-01   3.9259E+01  0.000E+00  0.000E+00  0.000E+00  1.06810E+03  1.586E+00  1.200E+01  6.000E-02  1.529E+00
   1    6    6     2     3    3.9259E+01  2.7479E-01   3.8985E+01  0.000E+00  0.000E+00  0.000E+00  1.06337E+03  1.580E+00  1.200E+01  6.000E-02  1.527E+00
   1    7    6     2     4    3.8985E+01  2.7439E-01   3.8710E+01  0.000E+00  0.000E+00  0.000E+00  1.05865E+03  1.573E+00  1.200E+01  6.000E-02  1.524E+00
   1    8    6     2     5    3.8710E+01  2.7399E-01   3.8436E+01  0.000E+00  0.000E+00  0.000E+00  1.05392E+03  1.566E+00  1.200E+01  6.000E-02  1.522E+00
   1    3    5     3     1    2.0000E+00  2.8252E-01   1.7175E+00  0.000E+00  0.000E+00  0.000E+00  1.07555E+03  1.909E+00  9.636E+00  7.227E-02  1.955E+00
   1    3    6     3     2    1.7175E+00  2.4905E-01   1.4684E+00  0.000E+00  0.000E+00  0.000E+00  1.07264E+03  1.727E+00  8.909E+00  6.682E-02  1.864E+00
   1    3    7     3     3    1.4684E+00  1.9718E-01   1.2712E+00  0.000E+00  0.000E+00  0.000E+00  1.06987E+03  1.555E+00  8.218E+00  5.547E-02  1.777E+00
   1    4    8     3     4    1.2712E+00  2.2567E-01   1.0456E+00  0.000E+00  0.000E+00  0.000E+00  1.06682E+03  1.364E+00  7.455E+00  6.709E-02  1.682E+00
   1    5    8     3     5    1.0456E+00  1.5790E-01   8.8768E-01  0.000E+00  0.000E+00  0.000E+00  1.06362E+03  1.164E+00  6.655E+00  4.991E-02  1.582E+00
   1    6    8     3     6    8.8768E-01  5.5980E-02   8.3170E-01  0.000E+00  0.000E+00  0.000E+00  1.06158E+03  1.036E+00  6.145E+00  1.844E-02  1.518E+00
   1    5   10     4     1    1.0000E+01  9.0919E-02   9.9091E+00  0.000E+00  0.000E+00  0.000E+00  1.07836E+03  6.368E-01  1.000E+01  2.500E-02  1.212E+00
   1    5    9     4     2    9.9091E+00  1.8158E-01   9.7275E+00  0.000E+00  0.000E+00  0.000E+00  1.07154E+03  6.315E-01  1.000E+01  5.000E-02  1.211E+00
   1    6    8     4     3    9.7275E+00  1.2689E-01   9.6006E+00  0.000E+00  0.000E+00  0.000E+00  1.06381E+03  6.256E-01  1.000E+01  3.500E-02  1.209E+00
   1    6    8     5     1    1.0432E+01  2.2686E-01   1.0205E+01  0.000E+00  0.000E+00  0.000E+00  1.05868E+03  6.790E-01  1.542E+01  6.166E-02  1.226E+00
   1    7    7     5     2    1.0205E+01  2.7894E-01   9.9265E+00  0.000E+00  0.000E+00  0.000E+00  1.05417E+03  6.732E-01  1.519E+01  7.594E-02  1.224E+00
   1    8    7     5     3    9.9265E+00  1.9221E-01   9.7343E+00  0.000E+00  0.000E+00  0.000E+00  1.04992E+03  6.676E-01  1.497E+01  5.241E-02  1.223E+00
   1    8    6     5     4    9.7343E+00  1.3577E-01   9.5985E+00  0.000E+00  0.000E+00  0.000E+00  1.04691E+03  6.637E-01  1.482E+01  3.706E-02  1.221E+00
   1    9    6     6     1    2.5739E+01  2.5433E-01   2.5485E+01  0.000E+00  0.000E+00  0.000E+00  1.04397E+03  1.239E+00  1.200E+01  6.000E-02  1.413E+00
   1   10    7     6     2    2.5485E+01  2.5389E-01   2.5231E+01  0.000E+00  0.000E+00  0.000E+00  1.03941E+03  1.232E+00  1.200E+01  6.000E-02  1.411E+00
   1   11    7     6     3    2.5231E+01  2.5345E-01   2.4977E+01  0.000E+00  0.000E+00  0.000E+00  1.03486E+03  1.224E+00  1.200E+01  6.000E-02  1.408E+00
   1   12    7     6     4    2.4977E+01  2.5300E-01   2.4724E+01  0.000E+00  0.000E+00  0.000E+00  1.03031E+03  1.217E+00  1.200E+01  6.000E-02  1.406E+00
   1   13    7     6     5    2.4724E+01  1.0759E-03   2.4723E+01  0.000E+00  0.000E+00  0.000E+00  1.02712E+03  1.213E+00  1.200E+01  2.400E-02  1.494E-02
   1   14    9     7     1    1.5000E+02  1.3436E+00   1.4866E+02  0.000E+00  0.000E+00  0.000E+00  1.03987E+03  2.288E+00  5.529E+01  5.593E-01  8.008E-01
   1   13    8     7     2    1.4866E+02  1.8425E+00   1.4681E+02  0.000E+00  0.000E+00  0.000E+00  1.03478E+03  2.279E+00  5.526E+01  6.148E-01  9.990E-01
   1   13    7     7     3    1.4681E+02  1.4590E+00   1.4535E+02  0.000E+00  0.000E+00  0.000E+00  1.02969E+03  2.270E+00  5.522E+01  5.584E-01  8.709E-01
   1   13    6     8     1    1.7008E+02  8.9975E-01   1.6918E+02  0.000E+00  0.000E+00  0.000E+00  1.02482E+03  2.950E+00  4.277E+01  4.359E-01  6.881E-01
   1   13    5     8     2    1.6918E+02  1.4741E-01   1.6903E+02  0.000E+00  0.000E+00  0.000E+00  1.01857E+03  2.946E+00  4.272E+01  4.354E-01  1.129E-01
   1   13    4     8     3    1.6903E+02 -2.5518E+00   1.7158E+02  0.000E+00  0.000E+00  0.000E+00  1.01233E+03  2.954E+00  4.284E+01  4.365E+00 -1.949E-01
   1   13    3     8     4    1.7158E+02 -3.7133E+00   1.7530E+02  0.000E+00  0.000E+00  0.000E+00  1.00610E+03  2.974E+00  4.313E+01  4.395E+00 -2.816E-01
   1   13    2     8     5    1.7530E+02 -2.6223E+00   1.7792E+02  0.000E+00  0.000E+00  0.000E+00  9.99870E+02  2.995E+00  4.342E+01  4.425E+00 -1.975E-01
   1   13    1     8     6    1.7792E+02 -2.0395E+00   1.7996E+02  0.000E+00  0.000E+00  0.000E+00  9.94884E+02  3.009E+00  4.364E+01  2.668E+00 -2.548E-01
   1    8    6     9     1    2.2296E+01  0.0000E+00   2.2296E+01  0.000E+00  0.000E+00  0.000E+00  1.08242E+03  3.666E+00  4.000E+00  0.000E+00  2.222E+00
   1    8    5     9     2    2.2296E+01  0.0000E+00   2.2296E+01  0.000E+00  0.000E+00  0.000E+00  1.08192E+03  3.666E+00  4.000E+00  0.000E+00  2.222E+00





UNSATURATED ZONE PACKAGE VOLUMETRIC BUDGET FOR  TIME STEP    30 STRESS PERIOD   43
  ------------------------------------------------------------------------------



     CUMULATIVE VOLUMES      L**3       RATES FOR THIS TIME STEP      L**3/T
     ------------------                 ------------------------

           IN:                                      IN:
           ---                                      ---
        INFILTRATION =  1758812921.8186          INFILTRATION =          26.7037

          OUT:                                     OUT:
          ----                                     ----
              UZF ET =  1625020335.5070                UZF ET =          26.6075
        UZF RECHARGE =     1883440.3295          UZF RECHARGE =       0.0000E+00

            IN - OUT =   131909145.9821              IN - OUT =       9.6190E-02

          STORAGE:                                 STORAGE:
          --------                                 --------
      STORAGE CHANGE =   131910983.0686        STORAGE CHANGE =       9.6189E-02

 PERCENT DISCREPANCY IS DIFFERENCE BETWEEN IN-OUT MINUS CHANGE IN STORAGE
 DIVIDED BY THE AVERAGE OF IN AND OUT TIMES 100

 PERCENT DISCREPANCY =          -0.00     PERCENT DISCREPANCY =           0.00






1
  VOLUMETRIC BUDGET FOR ENTIRE MODEL AT END OF TIME STEP   30, STRESS PERIOD  43
  ------------------------------------------------------------------------------

     CUMULATIVE VOLUMES      L**3       RATES FOR THIS TIME STEP      L**3/T
     ------------------                 ------------------------

           IN:                                      IN:
           ---                                      ---
               AG WELLS  =   219671824.0000                 AG WELLS  =           0.0000
      DIVERSION SEGMENTS =  1052197248.0000        DIVERSION SEGMENTS =          22.2957
           GW IRRIGATION =           0.0000             GW IRRIGATION =           0.0000
           SW IRRIGATION =           0.0000             SW IRRIGATION =           0.0000
        SYSTEM LOSSES GW =           0.0000          SYSTEM LOSSES GW =           0.0000
        SYSTEM LOSSES SW =           0.0000          SYSTEM LOSSES SW =           0.0000

                TOTAL IN =  1271869056.0000                  TOTAL IN =          22.2957

          OUT:                                     OUT:
          ----                                     ----
               AG WELLS  =           0.0000                 AG WELLS  =           0.0000
      DIVERSION SEGMENTS =           0.0000        DIVERSION SEGMENTS =           0.0000
           GW IRRIGATION =   219671824.0000             GW IRRIGATION =           0.0000
           SW IRRIGATION =  1052218432.0000             SW IRRIGATION =          22.2962
        SYSTEM LOSSES GW =           0.0000          SYSTEM LOSSES GW =           0.0000
        SYSTEM LOSSES SW =           0.0000          SYSTEM LOSSES SW =           0.0000

               TOTAL OUT =  1271890304.0000                 TOTAL OUT =          22.2962

                IN - OUT =      -21248.0000                  IN - OUT =      -4.4632E-04

     PERCENT DISCREPANCY =          -0.00         PERCENT DISCREPANCY =          -0.00



1
  VOLUMETRIC BUDGET FOR ENTIRE MODEL AT END OF TIME STEP   30, STRESS PERIOD  43
  ------------------------------------------------------------------------------

     CUMULATIVE VOLUMES      L**3       RATES FOR THIS TIME STEP      L**3/T
     ------------------                 ------------------------

           IN:                                      IN:
           ---                                      ---
             STORAGE     =   386697472.0000               STORAGE     =           0.6656
       CONSTANT HEAD     =           0.0000         CONSTANT HEAD     =           0.0000
     HEAD DEP BOUNDS     =    31605394.0000       HEAD DEP BOUNDS     =           0.2863
      STREAM LEAKAGE     =  1324041344.0000        STREAM LEAKAGE     =          12.1720
        UZF RECHARGE     =     1883440.3750          UZF RECHARGE     =           0.0000
               GW ET     =           0.0000                 GW ET     =           0.0000
     SURFACE LEAKAGE     =           0.0000       SURFACE LEAKAGE     =           0.0000
           AG WELLS      =           0.0000             AG WELLS      =           0.0000

                TOTAL IN =  1744227584.0000                  TOTAL IN =          13.1240

          OUT:                                     OUT:
          ----                                     ----
             STORAGE     =   296147200.0000               STORAGE     =           1.9057
       CONSTANT HEAD     =           0.0000         CONSTANT HEAD     =           0.0000
     HEAD DEP BOUNDS     =    32156978.0000       HEAD DEP BOUNDS     =           0.2907
      STREAM LEAKAGE     =  1192476416.0000        STREAM LEAKAGE     =          10.9268
        UZF RECHARGE     =           0.0000          UZF RECHARGE     =           0.0000
               GW ET     =     3779571.7500                 GW ET     =           0.0000
     SURFACE LEAKAGE     =           0.0000       SURFACE LEAKAGE     =           0.0000
           AG WELLS      =   219671824.0000             AG WELLS      =           0.0000

               TOTAL OUT =  1744231936.0000                 TOTAL OUT =          13.1232

                IN - OUT =       -4352.0000                  IN - OUT =       7.6103E-04

     PERCENT DISCREPANCY =          -0.00         PERCENT DISCREPANCY =           0.01






         TIME SUMMARY AT END OF TIME STEP   30 IN STRESS PERIOD   43
                    SECONDS     MINUTES      HOURS       DAYS        YEARS
                    -----------------------------------------------------------
   TIME STEP LENGTH  87667.      1461.1      24.352      1.0147     2.77799E-03
 STRESS PERIOD TIME 2.63000E+06  43833.      730.56      30.440     8.33397E-02
         TOTAL TIME 1.10545E+08 1.84242E+06  30707.      1279.5      3.5030    
1
1
                            STRESS PERIOD NO.   44, LENGTH =   2630000.    
                            -----------------------------------------------

                              NUMBER OF TIME STEPS =    30

                               MULTIPLIER FOR DELT =     1.000

                            INITIAL TIME STEP SIZE =   87666.66    

 REUSING NON-PARAMETER GHB CELLS FROM LAST STRESS PERIOD

      2 GHB CELLS

 REUSING STREAM SEGMENT DATA FROM LAST STRESS PERIOD



            AREAL INFILTRATION RATE
 READING ON UNIT   19 WITH FORMAT: (10F4.0)            

            1           2           3           4           5           6           7           8           9          10
 ........................................................................................................................
   1   1.2000E-09   0.000       0.000       0.000       0.000       0.000       0.000       0.000       0.000       0.000    
   2   2.1000E-09  2.0000E-09  8.0000E-10  8.5000E-09   0.000       0.000       0.000       0.000       0.000       0.000    
   3   5.0000E-10  1.1000E-09  8.8000E-09  5.5000E-09   0.000       0.000       0.000       0.000       0.000       0.000    
   4   8.5000E-09  1.1000E-09  1.1000E-09  1.1000E-09  2.0000E-09   0.000       0.000       0.000       0.000       0.000    
   5   8.5000E-09  1.1000E-09  1.1000E-09  1.1000E-09  1.1000E-09   0.000       0.000       0.000       0.000       0.000    
   6   8.5000E-09  5.2000E-09  2.1000E-09  1.1000E-09  1.5000E-09   0.000       0.000       0.000       0.000       0.000    
   7   8.5000E-09  5.2000E-09  2.1000E-09  1.2000E-09  2.0000E-09   0.000       0.000       0.000       0.000       0.000    
   8   5.0000E-10  5.2000E-09  2.1000E-09  1.2000E-09  5.0000E-09   0.000       0.000       0.000       0.000       0.000    
   9   5.0000E-10  5.2000E-09  2.1000E-09  1.2000E-09  5.0000E-09   0.000       0.000       0.000       0.000       0.000    
  10   5.0000E-10  5.2000E-09  2.1000E-09  1.2000E-09  5.8000E-09   0.000       0.000       0.000       0.000       0.000    
  11   1.0000E-10  1.1000E-09  1.1000E-09  1.2000E-09  5.0000E-09   0.000       0.000       0.000       0.000       0.000    
  12   1.1000E-09  1.1000E-09  1.1000E-09  1.1000E-09  2.0000E-09   0.000       0.000       0.000       0.000       0.000    
  13   1.1000E-09  2.2000E-09  2.2000E-09  2.1000E-09  1.0000E-09   0.000       0.000       0.000       0.000       0.000    
  14   2.0000E-10  5.5000E-09  5.5000E-09  5.2000E-09  1.0000E-09   0.000       0.000       0.000       0.000       0.000    
  15    0.000      8.8000E-09  8.8000E-09   0.000       0.000       0.000       0.000       0.000       0.000       0.000    

                  ET RATE =  4.000000E-07

 USING ET EXTINCTION DEPTH FROM PREVIOUS STRESS PERIOD. CURRENT PERIOD IS:      44

 USING EXTINCTION WATER CONTENT FROM PREVIOUS STRESS PERIOD. CURRENT PERIOD IS:      44

 USING AIR ENTRY PRESSURE FROM PREVIOUS STRESS PERIOD. CURRENT PERIOD IS:      44

 USING ROOT PRESSURE HEAD FROM PREVIOUS STRESS PERIOD. CURRENT PERIOD IS:      44

 USING ROOT ACTIVITY FROM PREVIOUS STRESS PERIOD. CURRENT PERIOD IS:      44

 PROCESSING AG STRESS PERIOD DATA

 READING AG STRESS PERIOD DATA

 READING IRRIGATION SEGMENT

 READING IRRIGATION WELL

 READING SUPPLEMENTAL WELL

 END PROCESSING AG STRESS PERIOD DATA OPTIONS
 
 SOLVING FOR HEAD 
                                                   Max.-Head-Change                         Max.-Flux-Residual
  Residual-Control   Outer-Iter.   Inner-Iter.     Column Row Layer    Maximum-Head-Change  Column Row Layer    Maximum-Flux-Residual          L2-NORM 
          0                 1           2             4    7     1      -0.3551372707E-01       5    8    1        -0.1866763237E+01      0.4633842072E+01
          0                 2           2             4   13     1      -0.1529827553E-01       4   13    1        -0.8991718813E+00      0.1680366325E+01
          0                 3           2             4    7     1      -0.6412564894E-02       5    8    1        -0.3351152827E+00      0.8351889647E+00
          0                 4           2             4    7     1      -0.5438857564E-02       4    7    1        -0.2841397062E+00      0.6960352303E+00
          0                 5           2             4    7     1      -0.3523983692E-02       4    7    1        -0.1841016995E+00      0.4509525331E+00
          0                 6           2             4    7     1       0.3427873255E-03       5    8    1         0.1841247931E-01      0.4509932623E-01
          0                 7           1             4    7     1      -0.2334254825E-04       5    8    1        -0.1289046691E-02      0.3157311168E-02

    ------------------------------------------------
       NWT REQUIRED            7 OUTER ITERATIONS 
       AND A TOTAL OF         13 INNER ITERATIONS.
    ------------------------------------------------

 NO OUTPUT CONTROL FOR STRESS PERIOD   44   TIME STEP    1
 
 SOLVING FOR HEAD 
                                                   Max.-Head-Change                         Max.-Flux-Residual
  Residual-Control   Outer-Iter.   Inner-Iter.     Column Row Layer    Maximum-Head-Change  Column Row Layer    Maximum-Flux-Residual          L2-NORM 
          0                 1           2             4    7     1      -0.6554807573E-01       4    7    1        -0.3425999001E+01      0.8344004132E+01
          0                 2           2             4   13     1      -0.1533357694E-01       4   13    1        -0.9012647459E+00      0.1764893171E+01
          0                 3           2             7   13     1      -0.1769805579E-02       7   13    1        -0.9875566382E-01      0.2269600474E+00
          0                 4           2             7   13     1       0.1204612362E-03       7   13    1         0.6904971988E-02      0.1075950733E-01
          0                 5           1             7   13     1      -0.4788647396E-05       7   13    1        -0.2819447691E-03      0.2996067591E-03

    ------------------------------------------------
       NWT REQUIRED            5 OUTER ITERATIONS 
       AND A TOTAL OF          9 INNER ITERATIONS.
    ------------------------------------------------

 NO OUTPUT CONTROL FOR STRESS PERIOD   44   TIME STEP    2
 
 SOLVING FOR HEAD 
                                                   Max.-Head-Change                         Max.-Flux-Residual
  Residual-Control   Outer-Iter.   Inner-Iter.     Column Row Layer    Maximum-Head-Change  Column Row Layer    Maximum-Flux-Residual          L2-NORM 
          0                 1           2             4    7     1      -0.6511584468E-01       4    7    1        -0.3404864881E+01      0.8190754291E+01
          0                 2           2             4   13     1      -0.1541738757E-01       4   13    1        -0.9062051762E+00      0.1764531011E+01
          0                 3           2             7   13     1      -0.1760079224E-02       7   13    1        -0.9821395990E-01      0.2272244089E+00
          0                 4           2             7   13     1       0.1197984500E-03       7   13    1         0.6867017473E-02      0.1074992206E-01
          0                 5           1             7   13     1      -0.4762723873E-05       7   13    1        -0.2804179171E-03      0.2982190903E-03

    ------------------------------------------------
       NWT REQUIRED            5 OUTER ITERATIONS 
       AND A TOTAL OF          9 INNER ITERATIONS.
    ------------------------------------------------

 NO OUTPUT CONTROL FOR STRESS PERIOD   44   TIME STEP    3
 
 SOLVING FOR HEAD 
                                                   Max.-Head-Change                         Max.-Flux-Residual
  Residual-Control   Outer-Iter.   Inner-Iter.     Column Row Layer    Maximum-Head-Change  Column Row Layer    Maximum-Flux-Residual          L2-NORM 
          0                 1           2             4    7     1      -0.6470501712E-01       4    7    1        -0.3382923749E+01      0.8046996908E+01
          0                 2           2             4   13     1      -0.1549349286E-01       4   13    1        -0.9106899561E+00      0.1764148456E+01
          0                 3           2             7   13     1      -0.1750650578E-02       7   13    1        -0.9768884809E-01      0.2266459883E+00
          0                 4           2             7   13     1       0.1191580307E-03       7   13    1         0.6830344146E-02      0.1071455388E-01
          0                 5           1             7   13     1      -0.4737512306E-05       7   13    1        -0.2789325881E-03      0.2970009437E-03

    ------------------------------------------------
       NWT REQUIRED            5 OUTER ITERATIONS 
       AND A TOTAL OF          9 INNER ITERATIONS.
    ------------------------------------------------

 NO OUTPUT CONTROL FOR STRESS PERIOD   44   TIME STEP    4
 
 SOLVING FOR HEAD 
                                                   Max.-Head-Change                         Max.-Flux-Residual
  Residual-Control   Outer-Iter.   Inner-Iter.     Column Row Layer    Maximum-Head-Change  Column Row Layer    Maximum-Flux-Residual          L2-NORM 
          0                 1           2             4    7     1      -0.6427179701E-01       4    7    1        -0.3361649712E+01      0.7911400691E+01
          0                 2           2             4   13     1      -0.1556264642E-01       4   13    1        -0.9147637842E+00      0.1763771402E+01
          0                 3           2             7   13     1      -0.1741509788E-02       7   13    1        -0.9717975954E-01      0.2260219020E+00
          0                 4           2             7   13     1       0.1185363091E-03       7   13    1         0.6794741549E-02      0.1067609662E-01
          0                 5           1             7   13     1      -0.4713933724E-05       7   13    1        -0.2775452690E-03      0.2954327537E-03

    ------------------------------------------------
       NWT REQUIRED            5 OUTER ITERATIONS 
       AND A TOTAL OF          9 INNER ITERATIONS.
    ------------------------------------------------

 NO OUTPUT CONTROL FOR STRESS PERIOD   44   TIME STEP    5
 
 SOLVING FOR HEAD 
                                                   Max.-Head-Change                         Max.-Flux-Residual
  Residual-Control   Outer-Iter.   Inner-Iter.     Column Row Layer    Maximum-Head-Change  Column Row Layer    Maximum-Flux-Residual          L2-NORM 
          0                 1           2             4    7     1      -0.7143324429E-01       4    7    1        -0.3736804003E+01      0.8735802606E+01
          0                 2           2             4   13     1      -0.1460760340E-01       4   13    1        -0.8586447040E+00      0.1714747931E+01
          0                 3           2             7   13     1      -0.1750911963E-02       7   13    1        -0.9769312793E-01      0.2276426871E+00
          0                 4           2             7   13     1       0.1191743625E-03       7   13    1         0.6830826278E-02      0.1076076688E-01
          0                 5           1             7   13     1      -0.4738696059E-05       7   13    1        -0.2789939253E-03      0.2974693520E-03

    ------------------------------------------------
       NWT REQUIRED            5 OUTER ITERATIONS 
       AND A TOTAL OF          9 INNER ITERATIONS.
    ------------------------------------------------

 NO OUTPUT CONTROL FOR STRESS PERIOD   44   TIME STEP    6
 
 SOLVING FOR HEAD 
                                                   Max.-Head-Change                         Max.-Flux-Residual
  Residual-Control   Outer-Iter.   Inner-Iter.     Column Row Layer    Maximum-Head-Change  Column Row Layer    Maximum-Flux-Residual          L2-NORM 
          0                 1           2             4    7     1      -0.7264522973E-01       4    7    1        -0.3801357760E+01      0.8810641525E+01
          0                 2           2             4   13     1      -0.1443306153E-01       4   13    1        -0.8483929427E+00      0.1702773002E+01
          0                 3           2             7   13     1      -0.1746503476E-02       7   13    1        -0.9744526084E-01      0.2274301064E+00
          0                 4           2             7   13     1       0.1188745570E-03       7   13    1         0.6813557446E-02      0.1074719292E-01
          0                 5           1             7   13     1      -0.4725114790E-05       7   13    1        -0.2781916360E-03      0.2965594215E-03

    ------------------------------------------------
       NWT REQUIRED            5 OUTER ITERATIONS 
       AND A TOTAL OF          9 INNER ITERATIONS.
    ------------------------------------------------

 NO OUTPUT CONTROL FOR STRESS PERIOD   44   TIME STEP    7
 
 SOLVING FOR HEAD 
                                                   Max.-Head-Change                         Max.-Flux-Residual
  Residual-Control   Outer-Iter.   Inner-Iter.     Column Row Layer    Maximum-Head-Change  Column Row Layer    Maximum-Flux-Residual          L2-NORM 
          0                 1           2             4    7     1      -0.7210344906E-01       4    7    1        -0.3774284370E+01      0.8672085279E+01
          0                 2           2             4   13     1      -0.1448368297E-01       4   13    1        -0.8513722403E+00      0.1699966411E+01
          0                 3           2             7   13     1      -0.1738164121E-02       7   13    1        -0.9698082338E-01      0.2266319420E+00
          0                 4           2             7   13     1       0.1183078785E-03       7   13    1         0.6781109051E-02      0.1070507238E-01
          0                 5           1             7   13     1      -0.4704796883E-05       7   13    1        -0.2769959242E-03      0.2954990790E-03

    ------------------------------------------------
       NWT REQUIRED            5 OUTER ITERATIONS 
       AND A TOTAL OF          9 INNER ITERATIONS.
    ------------------------------------------------

 NO OUTPUT CONTROL FOR STRESS PERIOD   44   TIME STEP    8
 
 SOLVING FOR HEAD 
                                                   Max.-Head-Change                         Max.-Flux-Residual
  Residual-Control   Outer-Iter.   Inner-Iter.     Column Row Layer    Maximum-Head-Change  Column Row Layer    Maximum-Flux-Residual          L2-NORM 
          0                 1           2             4    7     1      -0.7154339770E-01       4    7    1        -0.3746147661E+01      0.8539837766E+01
          0                 2           2             4   13     1      -0.1452974392E-01       4   13    1        -0.8540822007E+00      0.1697273710E+01
          0                 3           2             7   13     1      -0.1730061882E-02       7   13    1        -0.9652958875E-01      0.2258514055E+00
          0                 4           2             7   13     1       0.1177571062E-03       7   13    1         0.6749566316E-02      0.1066313049E-01
          0                 5           1             7   13     1      -0.4688864687E-05       7   13    1        -0.2760557159E-03      0.2944117356E-03

    ------------------------------------------------
       NWT REQUIRED            5 OUTER ITERATIONS 
       AND A TOTAL OF          9 INNER ITERATIONS.
    ------------------------------------------------

 NO OUTPUT CONTROL FOR STRESS PERIOD   44   TIME STEP    9
 
 SOLVING FOR HEAD 
                                                   Max.-Head-Change                         Max.-Flux-Residual
  Residual-Control   Outer-Iter.   Inner-Iter.     Column Row Layer    Maximum-Head-Change  Column Row Layer    Maximum-Flux-Residual          L2-NORM 
          0                 1           2             4    7     1      -0.7096662693E-01       4    7    1        -0.3717033853E+01      0.8413428625E+01
          0                 2           2             4   13     1      -0.1457176859E-01       4   13    1        -0.8565538041E+00      0.1694686304E+01
          0                 3           2             7   13     1      -0.1722200878E-02       7   13    1        -0.9609180402E-01      0.2250732487E+00
          0                 4           2             7   13     1       0.1172213281E-03       7   13    1         0.6718890206E-02      0.1062239364E-01
          0                 5           1             7   13     1      -0.4660390603E-05       7   13    1        -0.2743827399E-03      0.2927715801E-03

    ------------------------------------------------
       NWT REQUIRED            5 OUTER ITERATIONS 
       AND A TOTAL OF          9 INNER ITERATIONS.
    ------------------------------------------------

 NO OUTPUT CONTROL FOR STRESS PERIOD   44   TIME STEP   10
 
 SOLVING FOR HEAD 
                                                   Max.-Head-Change                         Max.-Flux-Residual
  Residual-Control   Outer-Iter.   Inner-Iter.     Column Row Layer    Maximum-Head-Change  Column Row Layer    Maximum-Flux-Residual          L2-NORM 
          0                 1           2             4    7     1      -0.7037541086E-01       4    7    1        -0.3687068517E+01      0.8292477560E+01
          0                 2           2             4   13     1      -0.1461002940E-01       4   13    1        -0.8588033046E+00      0.1692188729E+01
          0                 3           2             7   13     1      -0.1714565723E-02       7   13    1        -0.9566659565E-01      0.2243395293E+00
          0                 4           2             7   13     1       0.1167008018E-03       7   13    1         0.6689083383E-02      0.1058332998E-01
          0                 5           1             7   13     1      -0.4639766223E-05       7   13    1        -0.2731685845E-03      0.2914838541E-03

    ------------------------------------------------
       NWT REQUIRED            5 OUTER ITERATIONS 
       AND A TOTAL OF          9 INNER ITERATIONS.
    ------------------------------------------------

 NO OUTPUT CONTROL FOR STRESS PERIOD   44   TIME STEP   11
 
 SOLVING FOR HEAD 
                                                   Max.-Head-Change                         Max.-Flux-Residual
  Residual-Control   Outer-Iter.   Inner-Iter.     Column Row Layer    Maximum-Head-Change  Column Row Layer    Maximum-Flux-Residual          L2-NORM 
          0                 1           2             4    7     1      -0.6977127764E-01       4    7    1        -0.3656337216E+01      0.8176576987E+01
          0                 2           2             4   13     1      -0.1464501679E-01       4   13    1        -0.8608596144E+00      0.1689774902E+01
          0                 3           2             7   13     1      -0.1707149918E-02       7   13    1        -0.9525360790E-01      0.2236583386E+00
          0                 4           2             7   13     1       0.1161959212E-03       7   13    1         0.6660173103E-02      0.1055269124E-01
          0                 5           1             7   13     1      -0.4617449912E-05       7   13    1        -0.2718528563E-03      0.2905379015E-03

    ------------------------------------------------
       NWT REQUIRED            5 OUTER ITERATIONS 
       AND A TOTAL OF          9 INNER ITERATIONS.
    ------------------------------------------------

 NO OUTPUT CONTROL FOR STRESS PERIOD   44   TIME STEP   12
 
 SOLVING FOR HEAD 
                                                   Max.-Head-Change                         Max.-Flux-Residual
  Residual-Control   Outer-Iter.   Inner-Iter.     Column Row Layer    Maximum-Head-Change  Column Row Layer    Maximum-Flux-Residual          L2-NORM 
          0                 1           2             4    7     1      -0.6915628226E-01       4    7    1        -0.3624953412E+01      0.8065413805E+01
          0                 2           2             4   13     1      -0.1467695186E-01       4   13    1        -0.8627358121E+00      0.1687438098E+01
          0                 3           2             7   13     1      -0.1699944020E-02       7   13    1        -0.9485231545E-01      0.2229550061E+00
          0                 4           2             7   13     1       0.1157059648E-03       7   13    1         0.6632117792E-02      0.1051527316E-01
          0                 5           1             7   13     1      -0.4600024958E-05       7   13    1        -0.2708286370E-03      0.2892738633E-03

    ------------------------------------------------
       NWT REQUIRED            5 OUTER ITERATIONS 
       AND A TOTAL OF          9 INNER ITERATIONS.
    ------------------------------------------------

 NO OUTPUT CONTROL FOR STRESS PERIOD   44   TIME STEP   13
 
 SOLVING FOR HEAD 
                                                   Max.-Head-Change                         Max.-Flux-Residual
  Residual-Control   Outer-Iter.   Inner-Iter.     Column Row Layer    Maximum-Head-Change  Column Row Layer    Maximum-Flux-Residual          L2-NORM 
          0                 1           2             4    7     1      -0.6853173708E-01       4    7    1        -0.3592990679E+01      0.7958656640E+01
          0                 2           2             4   13     1      -0.1470619260E-01       4   13    1        -0.8644531123E+00      0.1685172742E+01
          0                 3           2             7   13     1      -0.1692940157E-02       7   13    1        -0.9446227761E-01      0.2223220762E+00
          0                 4           2             7   13     1       0.1152295037E-03       7   13    1         0.6604835921E-02      0.1048089468E-01
          0                 5           1             7   13     1      -0.4581540359E-05       7   13    1        -0.2696954648E-03      0.2882434489E-03

    ------------------------------------------------
       NWT REQUIRED            5 OUTER ITERATIONS 
       AND A TOTAL OF          9 INNER ITERATIONS.
    ------------------------------------------------

 NO OUTPUT CONTROL FOR STRESS PERIOD   44   TIME STEP   14
 
 SOLVING FOR HEAD 
                                                   Max.-Head-Change                         Max.-Flux-Residual
  Residual-Control   Outer-Iter.   Inner-Iter.     Column Row Layer    Maximum-Head-Change  Column Row Layer    Maximum-Flux-Residual          L2-NORM 
          0                 1           2             4    7     1      -0.6789941565E-01       4    7    1        -0.3560547655E+01      0.7856035371E+01
          0                 2           2             4   13     1      -0.1473280186E-01       4   13    1        -0.8660152686E+00      0.1682964821E+01
          0                 3           2             7   13     1      -0.1686132387E-02       7   13    1        -0.9408316341E-01      0.2216256403E+00
          0                 4           2             7   13     1       0.1147670959E-03       7   13    1         0.6578357198E-02      0.1044468863E-01
          0                 5           1             7   13     1      -0.4563453415E-05       7   13    1        -0.2686740854E-03      0.2871863555E-03

    ------------------------------------------------
       NWT REQUIRED            5 OUTER ITERATIONS 
       AND A TOTAL OF          9 INNER ITERATIONS.
    ------------------------------------------------

 NO OUTPUT CONTROL FOR STRESS PERIOD   44   TIME STEP   15
 
 SOLVING FOR HEAD 
                                                   Max.-Head-Change                         Max.-Flux-Residual
  Residual-Control   Outer-Iter.   Inner-Iter.     Column Row Layer    Maximum-Head-Change  Column Row Layer    Maximum-Flux-Residual          L2-NORM 
          0                 1           2             4    7     1      -0.6726044571E-01       4    7    1        -0.3527687455E+01      0.7757277377E+01
          0                 2           2             4   13     1      -0.1475724906E-01       4   13    1        -0.8674499781E+00      0.1680820026E+01
          0                 3           2             7   13     1      -0.1679512180E-02       7   13    1        -0.9371449421E-01      0.2210202784E+00
          0                 4           2             7   13     1       0.1143145871E-03       7   13    1         0.6552445475E-02      0.1041179196E-01
          0                 5           1             7   13     1      -0.4544416198E-05       7   13    1        -0.2675552951E-03      0.2860738559E-03

    ------------------------------------------------
       NWT REQUIRED            5 OUTER ITERATIONS 
       AND A TOTAL OF          9 INNER ITERATIONS.
    ------------------------------------------------

 NO OUTPUT CONTROL FOR STRESS PERIOD   44   TIME STEP   16
 
 SOLVING FOR HEAD 
                                                   Max.-Head-Change                         Max.-Flux-Residual
  Residual-Control   Outer-Iter.   Inner-Iter.     Column Row Layer    Maximum-Head-Change  Column Row Layer    Maximum-Flux-Residual          L2-NORM 
          0                 1           2             4    7     1      -0.6661611733E-01       4    7    1        -0.3494482061E+01      0.7662159570E+01
          0                 2           2             4   13     1      -0.1477960323E-01       4   13    1        -0.8687613588E+00      0.1678728915E+01
          0                 3           2             7   13     1      -0.1673072357E-02       7   13    1        -0.9335587994E-01      0.2204038940E+00
          0                 4           2             7   13     1       0.1138767244E-03       7   13    1         0.6527375181E-02      0.1037893726E-01
          0                 5           1             7   13     1      -0.4527664286E-05       7   13    1        -0.2665693401E-03      0.2849993719E-03

    ------------------------------------------------
       NWT REQUIRED            5 OUTER ITERATIONS 
       AND A TOTAL OF          9 INNER ITERATIONS.
    ------------------------------------------------

 NO OUTPUT CONTROL FOR STRESS PERIOD   44   TIME STEP   17
 
 SOLVING FOR HEAD 
                                                   Max.-Head-Change                         Max.-Flux-Residual
  Residual-Control   Outer-Iter.   Inner-Iter.     Column Row Layer    Maximum-Head-Change  Column Row Layer    Maximum-Flux-Residual          L2-NORM 
          0                 1           2             4    7     1      -0.6596762702E-01       4    7    1        -0.3460998734E+01      0.7570442722E+01
          0                 2           2             4   13     1      -0.1480012509E-01       4   13    1        -0.8699647990E+00      0.1676689775E+01
          0                 3           2             7   13     1      -0.1666806889E-02       7   13    1        -0.9300698241E-01      0.2197924242E+00
          0                 4           2             7   13     1       0.1134511483E-03       7   13    1         0.6503011942E-02      0.1034652705E-01
          0                 5           1             7   13     1      -0.4510792640E-05       7   13    1        -0.2655747267E-03      0.2840424423E-03

    ------------------------------------------------
       NWT REQUIRED            5 OUTER ITERATIONS 
       AND A TOTAL OF          9 INNER ITERATIONS.
    ------------------------------------------------

 NO OUTPUT CONTROL FOR STRESS PERIOD   44   TIME STEP   18
 
 SOLVING FOR HEAD 
                                                   Max.-Head-Change                         Max.-Flux-Residual
  Residual-Control   Outer-Iter.   Inner-Iter.     Column Row Layer    Maximum-Head-Change  Column Row Layer    Maximum-Flux-Residual          L2-NORM 
          0                 1           2             4    7     1      -0.6531634732E-01       4    7    1        -0.3427314205E+01      0.7481948882E+01
          0                 2           2             4   13     1      -0.1481895835E-01       4   13    1        -0.8710687779E+00      0.1674700707E+01
          0                 3           2             7   13     1      -0.1660707578E-02       7   13    1        -0.9266733012E-01      0.2192194442E+00
          0                 4           2             7   13     1       0.1130283259E-03       7   13    1         0.6478797595E-02      0.1031560772E-01
          0                 5           1             7   13     1      -0.4485307757E-05       7   13    1        -0.2640752573E-03      0.2828305423E-03

    ------------------------------------------------
       NWT REQUIRED            5 OUTER ITERATIONS 
       AND A TOTAL OF          9 INNER ITERATIONS.
    ------------------------------------------------

 NO OUTPUT CONTROL FOR STRESS PERIOD   44   TIME STEP   19
 
 SOLVING FOR HEAD 
                                                   Max.-Head-Change                         Max.-Flux-Residual
  Residual-Control   Outer-Iter.   Inner-Iter.     Column Row Layer    Maximum-Head-Change  Column Row Layer    Maximum-Flux-Residual          L2-NORM 
          0                 1           2             4    7     1      -0.6466303852E-01       4    7    1        -0.3393470699E+01      0.7396490677E+01
          0                 2           2             4   13     1      -0.1483624554E-01       4   13    1        -0.8720817850E+00      0.1672755360E+01
          0                 3           2             7   13     1      -0.1654769159E-02       7   13    1        -0.9233664476E-01      0.2186607734E+00
          0                 4           2             7   13     1       0.1126305585E-03       7   13    1         0.6456023506E-02      0.1028518836E-01
          0                 5           1             7   13     1      -0.4478548093E-05       7   13    1        -0.2636778240E-03      0.2818750187E-03

    ------------------------------------------------
       NWT REQUIRED            5 OUTER ITERATIONS 
       AND A TOTAL OF          9 INNER ITERATIONS.
    ------------------------------------------------

 NO OUTPUT CONTROL FOR STRESS PERIOD   44   TIME STEP   20
 
 SOLVING FOR HEAD 
                                                   Max.-Head-Change                         Max.-Flux-Residual
  Residual-Control   Outer-Iter.   Inner-Iter.     Column Row Layer    Maximum-Head-Change  Column Row Layer    Maximum-Flux-Residual          L2-NORM 
          0                 1           2             4    7     1      -0.6400866010E-01       4    7    1        -0.3359522732E+01      0.7313899857E+01
          0                 2           2             4   13     1      -0.1485212550E-01       4   13    1        -0.8730119431E+00      0.1670856393E+01
          0                 3           2             7   13     1      -0.1648987866E-02       7   13    1        -0.9201471444E-01      0.2181057485E+00
          0                 4           2             7   13     1       0.1122377719E-03       7   13    1         0.6433534146E-02      0.1025548923E-01
          0                 5           1             7   13     1      -0.4461890356E-05       7   13    1        -0.2626980040E-03      0.2808858845E-03

    ------------------------------------------------
       NWT REQUIRED            5 OUTER ITERATIONS 
       AND A TOTAL OF          9 INNER ITERATIONS.
    ------------------------------------------------

 NO OUTPUT CONTROL FOR STRESS PERIOD   44   TIME STEP   21
 
 SOLVING FOR HEAD 
                                                   Max.-Head-Change                         Max.-Flux-Residual
  Residual-Control   Outer-Iter.   Inner-Iter.     Column Row Layer    Maximum-Head-Change  Column Row Layer    Maximum-Flux-Residual          L2-NORM 
          0                 1           2             4    7     1      -0.6335405211E-01       4    7    1        -0.3325517947E+01      0.7234003533E+01
          0                 2           2             4   13     1      -0.1486677663E-01       4   13    1        -0.8738698325E+00      0.1669001332E+01
          0                 3           2             7   13     1      -0.1643355749E-02       7   13    1        -0.9170109471E-01      0.2175784580E+00
          0                 4           2             7   13     1       0.1118649443E-03       7   13    1         0.6412239443E-02      0.1022835072E-01
          0                 5           1             7   13     1      -0.4458284295E-05       7   13    1        -0.2624912909E-03      0.2806166256E-03

    ------------------------------------------------
       NWT REQUIRED            5 OUTER ITERATIONS 
       AND A TOTAL OF          9 INNER ITERATIONS.
    ------------------------------------------------

 NO OUTPUT CONTROL FOR STRESS PERIOD   44   TIME STEP   22
 
 SOLVING FOR HEAD 
                                                   Max.-Head-Change                         Max.-Flux-Residual
  Residual-Control   Outer-Iter.   Inner-Iter.     Column Row Layer    Maximum-Head-Change  Column Row Layer    Maximum-Flux-Residual          L2-NORM 
          0                 1           2             4    7     1      -0.6270004505E-01       4    7    1        -0.3291502674E+01      0.7156668025E+01
          0                 2           2             4   13     1      -0.1488021994E-01       4   13    1        -0.8746566615E+00      0.1667183854E+01
          0                 3           2             7   13     1      -0.1637869018E-02       7   13    1        -0.9139557147E-01      0.2170533025E+00
          0                 4           2             7   13     1       0.1114805111E-03       7   13    1         0.6390609482E-02      0.1020021227E-01
          0                 5           1             7   13     1      -0.4432317484E-05       7   13    1        -0.2609938606E-03      0.2792693138E-03

    ------------------------------------------------
       NWT REQUIRED            5 OUTER ITERATIONS 
       AND A TOTAL OF          9 INNER ITERATIONS.
    ------------------------------------------------

 NO OUTPUT CONTROL FOR STRESS PERIOD   44   TIME STEP   23
 
 SOLVING FOR HEAD 
                                                   Max.-Head-Change                         Max.-Flux-Residual
  Residual-Control   Outer-Iter.   Inner-Iter.     Column Row Layer    Maximum-Head-Change  Column Row Layer    Maximum-Flux-Residual          L2-NORM 
          0                 1           2             4    7     1      -0.6204748024E-01       4    7    1        -0.3257524573E+01      0.7081768041E+01
          0                 2           2             4   13     1      -0.1489265770E-01       4   13    1        -0.8753843840E+00      0.1665408312E+01
          0                 3           2             7   13     1      -0.1632522820E-02       7   13    1        -0.9109787966E-01      0.2165836082E+00
          0                 4           2             7   13     1       0.1111178152E-03       7   13    1         0.6369842608E-02      0.1017381203E-01
          0                 5           1             7   13     1      -0.4418595759E-05       7   13    1        -0.2601943625E-03      0.2781583098E-03

    ------------------------------------------------
       NWT REQUIRED            5 OUTER ITERATIONS 
       AND A TOTAL OF          9 INNER ITERATIONS.
    ------------------------------------------------

 NO OUTPUT CONTROL FOR STRESS PERIOD   44   TIME STEP   24
 
 SOLVING FOR HEAD 
                                                   Max.-Head-Change                         Max.-Flux-Residual
  Residual-Control   Outer-Iter.   Inner-Iter.     Column Row Layer    Maximum-Head-Change  Column Row Layer    Maximum-Flux-Residual          L2-NORM 
          0                 1           2             4    7     1      -0.6139677061E-01       4    7    1        -0.3223607079E+01      0.7009165692E+01
          0                 2           2             4   13     1      -0.1490408530E-01       4   13    1        -0.8760527178E+00      0.1663668681E+01
          0                 3           2             7   13     1      -0.1627309299E-02       7   13    1        -0.9080758851E-01      0.2160508508E+00
          0                 4           2             7   13     1       0.1107611524E-03       7   13    1         0.6349426993E-02      0.1014673167E-01
          0                 5           1             7   13     1      -0.4403457029E-05       7   13    1        -0.2593036988E-03      0.2773511179E-03

    ------------------------------------------------
       NWT REQUIRED            5 OUTER ITERATIONS 
       AND A TOTAL OF          9 INNER ITERATIONS.
    ------------------------------------------------

 NO OUTPUT CONTROL FOR STRESS PERIOD   44   TIME STEP   25
 
 SOLVING FOR HEAD 
                                                   Max.-Head-Change                         Max.-Flux-Residual
  Residual-Control   Outer-Iter.   Inner-Iter.     Column Row Layer    Maximum-Head-Change  Column Row Layer    Maximum-Flux-Residual          L2-NORM 
          0                 1           2             4    7     1      -0.6074894157E-01       4    7    1        -0.3189808219E+01      0.6938762481E+01
          0                 2           2             4   13     1      -0.1491468131E-01       4   13    1        -0.8766722410E+00      0.1661969580E+01
          0                 3           2             7   13     1      -0.1622228035E-02       7   13    1        -0.9052465120E-01      0.2156143240E+00
          0                 4           2             7   13     1       0.1104156852E-03       7   13    1         0.6329643294E-02      0.1012282940E-01
          0                 5           1             7   13     1      -0.4390030263E-05       7   13    1        -0.2585084203E-03      0.2766021967E-03

    ------------------------------------------------
       NWT REQUIRED            5 OUTER ITERATIONS 
       AND A TOTAL OF          9 INNER ITERATIONS.
    ------------------------------------------------

 NO OUTPUT CONTROL FOR STRESS PERIOD   44   TIME STEP   26
 
 SOLVING FOR HEAD 
                                                   Max.-Head-Change                         Max.-Flux-Residual
  Residual-Control   Outer-Iter.   Inner-Iter.     Column Row Layer    Maximum-Head-Change  Column Row Layer    Maximum-Flux-Residual          L2-NORM 
          0                 1           2             4    7     1      -0.6010412058E-01       4    7    1        -0.3156135591E+01      0.6870443112E+01
          0                 2           2             4   13     1      -0.1492449736E-01       4   13    1        -0.8772459387E+00      0.1660305644E+01
          0                 3           2             7   13     1      -0.1617271611E-02       7   13    1        -0.9024867202E-01      0.2151334880E+00
          0                 4           2             7   13     1       0.1100797135E-03       7   13    1         0.6310407114E-02      0.1009751356E-01
          0                 5           1             7   13     1      -0.4377604887E-05       7   13    1        -0.2577806349E-03      0.2759426663E-03

    ------------------------------------------------
       NWT REQUIRED            5 OUTER ITERATIONS 
       AND A TOTAL OF          9 INNER ITERATIONS.
    ------------------------------------------------

 NO OUTPUT CONTROL FOR STRESS PERIOD   44   TIME STEP   27
 
 SOLVING FOR HEAD 
                                                   Max.-Head-Change                         Max.-Flux-Residual
  Residual-Control   Outer-Iter.   Inner-Iter.     Column Row Layer    Maximum-Head-Change  Column Row Layer    Maximum-Flux-Residual          L2-NORM 
          0                 1           2             4    7     1      -0.5949931676E-01       4    7    1        -0.3124525522E+01      0.6808314590E+01
          0                 2           2             4   13     1      -0.1492865285E-01       4   13    1        -0.8774870097E+00      0.1658380517E+01
          0                 3           2             7   13     1      -0.1612522086E-02       7   13    1        -0.8998416705E-01      0.2146993215E+00
          0                 4           2             7   13     1       0.1097563452E-03       7   13    1         0.6291890872E-02      0.1007390764E-01
          0                 5           1             7   13     1      -0.4364809256E-05       7   13    1        -0.2570278311E-03      0.2751011715E-03

    ------------------------------------------------
       NWT REQUIRED            5 OUTER ITERATIONS 
       AND A TOTAL OF          9 INNER ITERATIONS.
    ------------------------------------------------

 NO OUTPUT CONTROL FOR STRESS PERIOD   44   TIME STEP   28
 
 SOLVING FOR HEAD 
                                                   Max.-Head-Change                         Max.-Flux-Residual
  Residual-Control   Outer-Iter.   Inner-Iter.     Column Row Layer    Maximum-Head-Change  Column Row Layer    Maximum-Flux-Residual          L2-NORM 
          0                 1           2             4    7     1      -0.9839247203E-01       4    7    1        -0.5155137775E+01      0.1154264850E+02
          0                 2           2             4   13     1      -0.9625870990E-02       4   13    1        -0.5658488727E+00      0.1495791231E+01
          0                 3           2             7   13     1      -0.1710213986E-02       7   13    1        -0.9537011033E-01      0.2308593969E+00
          0                 4           2             7   13     1       0.1164061718E-03       7   13    1         0.6670417371E-02      0.1085434289E-01
          0                 5           1             7   13     1      -0.4629045902E-05       7   13    1        -0.2725538675E-03      0.2930472188E-03

    ------------------------------------------------
       NWT REQUIRED            5 OUTER ITERATIONS 
       AND A TOTAL OF          9 INNER ITERATIONS.
    ------------------------------------------------

 NO OUTPUT CONTROL FOR STRESS PERIOD   44   TIME STEP   29
 
 SOLVING FOR HEAD 
                                                   Max.-Head-Change                         Max.-Flux-Residual
  Residual-Control   Outer-Iter.   Inner-Iter.     Column Row Layer    Maximum-Head-Change  Column Row Layer    Maximum-Flux-Residual          L2-NORM 
          0                 1           2             4    7     1      -0.9755073219E-01       4    7    1        -0.5112068394E+01      0.1139515264E+02
          0                 2           2             4   13     1      -0.9632425080E-02       4   13    1        -0.5662313046E+00      0.1484826874E+01
          0                 3           2             7   13     1      -0.1705606007E-02       7   13    1        -0.9511352861E-01      0.2298277397E+00
          0                 4           2             7   13     1       0.1160910280E-03       7   13    1         0.6652373793E-02      0.1081034073E-01
          0                 5           1             7   13     1      -0.4616288034E-05       7   13    1        -0.2718037804E-03      0.2922329302E-03

    ------------------------------------------------
       NWT REQUIRED            5 OUTER ITERATIONS 
       AND A TOTAL OF          9 INNER ITERATIONS.
    ------------------------------------------------

 NO OUTPUT CONTROL FOR STRESS PERIOD   44   TIME STEP   30



 STREAM LISTING     PERIOD     44   STEP       30

 LAYER ROW COL. STREAM  RCH.  FLOW INTO     FLOW TO   FLOW OUT OF   OVRLND.     DIRECT     STREAM       STREAM     STREAM     STREAM   STREAMBED  STREAMBED
                SEG.NO.  NO.  STRM. RCH.    AQUIFER    STRM. RCH.    RUNOFF     PRECIP       ET          HEAD       DEPTH      WIDTH   CONDCTNC.   GRADIENT

   1    1    1     1     1    2.7749E+01  2.5751E-01   2.7492E+01  0.000E+00  0.000E+00  0.000E+00  1.09427E+03  1.218E+00  1.357E+01  6.105E-02  1.406E+00
   1    2    2     1     2    2.7492E+01  3.9832E-01   2.7093E+01  0.000E+00  0.000E+00  0.000E+00  1.08927E+03  1.213E+00  1.351E+01  9.454E-02  1.404E+00
   1    3    3     1     3    2.7093E+01  3.3923E-01   2.6754E+01  0.000E+00  0.000E+00  0.000E+00  1.08363E+03  1.208E+00  1.344E+01  8.062E-02  1.403E+00
   1    3    4     1     4    2.6754E+01  3.1200E-01   2.6442E+01  0.000E+00  0.000E+00  0.000E+00  1.07861E+03  1.203E+00  1.337E+01  7.422E-02  1.401E+00
   1    4    5     2     1    2.4442E+01  3.2655E-01   2.4116E+01  0.000E+00  0.000E+00  0.000E+00  1.07312E+03  1.187E+00  1.200E+01  7.800E-02  1.396E+00
   1    5    6     2     2    2.4116E+01  2.5068E-01   2.3865E+01  0.000E+00  0.000E+00  0.000E+00  1.06769E+03  1.178E+00  1.200E+01  6.000E-02  1.393E+00
   1    6    6     2     3    2.3865E+01  2.5024E-01   2.3615E+01  0.000E+00  0.000E+00  0.000E+00  1.06296E+03  1.171E+00  1.200E+01  6.000E-02  1.390E+00
   1    7    6     2     4    2.3615E+01  2.4979E-01   2.3365E+01  0.000E+00  0.000E+00  0.000E+00  1.05824E+03  1.163E+00  1.200E+01  6.000E-02  1.388E+00
   1    8    6     2     5    2.3365E+01  2.4935E-01   2.3115E+01  0.000E+00  0.000E+00  0.000E+00  1.05351E+03  1.156E+00  1.200E+01  6.000E-02  1.385E+00
   1    3    5     3     1    2.0000E+00  2.8252E-01   1.7175E+00  0.000E+00  0.000E+00  0.000E+00  1.07555E+03  1.909E+00  9.636E+00  7.227E-02  1.955E+00
   1    3    6     3     2    1.7175E+00  2.4905E-01   1.4684E+00  0.000E+00  0.000E+00  0.000E+00  1.07264E+03  1.727E+00  8.909E+00  6.682E-02  1.864E+00
   1    3    7     3     3    1.4684E+00  1.9718E-01   1.2712E+00  0.000E+00  0.000E+00  0.000E+00  1.06987E+03  1.555E+00  8.218E+00  5.547E-02  1.777E+00
   1    4    8     3     4    1.2712E+00  2.2567E-01   1.0456E+00  0.000E+00  0.000E+00  0.000E+00  1.06682E+03  1.364E+00  7.455E+00  6.709E-02  1.682E+00
   1    5    8     3     5    1.0456E+00  1.5790E-01   8.8768E-01  0.000E+00  0.000E+00  0.000E+00  1.06362E+03  1.164E+00  6.655E+00  4.991E-02  1.582E+00
   1    6    8     3     6    8.8768E-01  5.5980E-02   8.3170E-01  0.000E+00  0.000E+00  0.000E+00  1.06158E+03  1.036E+00  6.145E+00  1.844E-02  1.518E+00
   1    5   10     4     1    1.0000E+01  9.0919E-02   9.9091E+00  0.000E+00  0.000E+00  0.000E+00  1.07836E+03  6.368E-01  1.000E+01  2.500E-02  1.212E+00
   1    5    9     4     2    9.9091E+00  1.8158E-01   9.7275E+00  0.000E+00  0.000E+00  0.000E+00  1.07154E+03  6.315E-01  1.000E+01  5.000E-02  1.211E+00
   1    6    8     4     3    9.7275E+00  1.2689E-01   9.6006E+00  0.000E+00  0.000E+00  0.000E+00  1.06381E+03  6.256E-01  1.000E+01  3.500E-02  1.209E+00
   1    6    8     5     1    1.0432E+01  2.2686E-01   1.0205E+01  0.000E+00  0.000E+00  0.000E+00  1.05868E+03  6.790E-01  1.542E+01  6.166E-02  1.226E+00
   1    7    7     5     2    1.0205E+01  2.7894E-01   9.9265E+00  0.000E+00  0.000E+00  0.000E+00  1.05417E+03  6.732E-01  1.519E+01  7.594E-02  1.224E+00
   1    8    7     5     3    9.9265E+00  1.9221E-01   9.7343E+00  0.000E+00  0.000E+00  0.000E+00  1.04992E+03  6.676E-01  1.497E+01  5.241E-02  1.223E+00
   1    8    6     5     4    9.7343E+00  1.3577E-01   9.5985E+00  0.000E+00  0.000E+00  0.000E+00  1.04691E+03  6.637E-01  1.482E+01  3.706E-02  1.221E+00
   1    9    6     6     1    9.5985E+00  2.2097E-01   9.3776E+00  0.000E+00  0.000E+00  0.000E+00  1.04341E+03  6.828E-01  1.200E+01  6.000E-02  1.228E+00
   1   10    7     6     2    9.3776E+00  2.2039E-01   9.1572E+00  0.000E+00  0.000E+00  0.000E+00  1.03885E+03  6.732E-01  1.200E+01  6.000E-02  1.224E+00
   1   11    7     6     3    9.1572E+00  2.1981E-01   8.9374E+00  0.000E+00  0.000E+00  0.000E+00  1.03430E+03  6.636E-01  1.200E+01  6.000E-02  1.221E+00
   1   12    7     6     4    8.9374E+00  2.1923E-01   8.7181E+00  0.000E+00  0.000E+00  0.000E+00  1.02974E+03  6.539E-01  1.200E+01  6.000E-02  1.218E+00
   1   13    7     6     5    8.7181E+00 -1.1244E-01   8.8306E+00  0.000E+00  0.000E+00  0.000E+00  1.02656E+03  6.515E-01  1.200E+01  2.400E-01 -1.562E-01
   1   14    9     7     1    1.5000E+02  1.3438E+00   1.4866E+02  0.000E+00  0.000E+00  0.000E+00  1.03987E+03  2.288E+00  5.529E+01  5.593E-01  8.009E-01
   1   13    8     7     2    1.4866E+02  1.8458E+00   1.4681E+02  0.000E+00  0.000E+00  0.000E+00  1.03478E+03  2.279E+00  5.526E+01  6.148E-01  1.001E+00
   1   13    7     7     3    1.4681E+02  1.4858E+00   1.4532E+02  0.000E+00  0.000E+00  0.000E+00  1.02969E+03  2.270E+00  5.522E+01  5.584E-01  8.869E-01
   1   13    6     8     1    1.5416E+02  8.4199E-01   1.5331E+02  0.000E+00  0.000E+00  0.000E+00  1.02472E+03  2.843E+00  4.122E+01  4.201E-01  6.681E-01
   1   13    5     8     2    1.5331E+02  1.1598E-01   1.5320E+02  0.000E+00  0.000E+00  0.000E+00  1.01846E+03  2.840E+00  4.117E+01  4.196E-01  9.214E-02
   1   13    4     8     3    1.5320E+02 -2.6175E+00   1.5581E+02  0.000E+00  0.000E+00  0.000E+00  1.01222E+03  2.848E+00  4.130E+01  4.209E+00 -2.073E-01
   1   13    3     8     4    1.5581E+02 -3.7418E+00   1.5956E+02  0.000E+00  0.000E+00  0.000E+00  1.00600E+03  2.870E+00  4.162E+01  4.241E+00 -2.941E-01
   1   13    2     8     5    1.5956E+02 -2.6396E+00   1.6220E+02  0.000E+00  0.000E+00  0.000E+00  9.99767E+02  2.892E+00  4.193E+01  4.273E+00 -2.059E-01
   1   13    1     8     6    1.6220E+02 -2.0439E+00   1.6424E+02  0.000E+00  0.000E+00  0.000E+00  9.94782E+02  2.907E+00  4.216E+01  2.578E+00 -2.643E-01
   1    8    6     9     1    2.3115E+01  0.0000E+00   2.3115E+01  0.000E+00  0.000E+00  0.000E+00  1.08250E+03  3.746E+00  4.000E+00  0.000E+00  2.249E+00
   1    8    5     9     2    2.3115E+01  0.0000E+00   2.3115E+01  0.000E+00  0.000E+00  0.000E+00  1.08200E+03  3.746E+00  4.000E+00  0.000E+00  2.249E+00





UNSATURATED ZONE PACKAGE VOLUMETRIC BUDGET FOR  TIME STEP    30 STRESS PERIOD   44
  ------------------------------------------------------------------------------



     CUMULATIVE VOLUMES      L**3       RATES FOR THIS TIME STEP      L**3/T
     ------------------                 ------------------------

           IN:                                      IN:
           ---                                      ---
        INFILTRATION =  1927606880.2112          INFILTRATION =          64.2425

          OUT:                                     OUT:
          ----                                     ----
              UZF ET =  1793623056.0870                UZF ET =          64.1075
        UZF RECHARGE =     1883440.3295          UZF RECHARGE =       0.0000E+00

            IN - OUT =   132100383.7946              IN - OUT =           0.1350

          STORAGE:                                 STORAGE:
          --------                                 --------
      STORAGE CHANGE =   132102217.4124        STORAGE CHANGE =           0.1350

 PERCENT DISCREPANCY IS DIFFERENCE BETWEEN IN-OUT MINUS CHANGE IN STORAGE
 DIVIDED BY THE AVERAGE OF IN AND OUT TIMES 100

 PERCENT DISCREPANCY =          -0.00     PERCENT DISCREPANCY =           0.00






1
  VOLUMETRIC BUDGET FOR ENTIRE MODEL AT END OF TIME STEP   30, STRESS PERIOD  44
  ------------------------------------------------------------------------------

     CUMULATIVE VOLUMES      L**3       RATES FOR THIS TIME STEP      L**3/T
     ------------------                 ------------------------

           IN:                                      IN:
           ---                                      ---
               AG WELLS  =   284324352.0000                 AG WELLS  =          36.7191
      DIVERSION SEGMENTS =  1144745600.0000        DIVERSION SEGMENTS =          23.1155
           GW IRRIGATION =           0.0000             GW IRRIGATION =           0.0000
           SW IRRIGATION =           0.0000             SW IRRIGATION =           0.0000
        SYSTEM LOSSES GW =           0.0000          SYSTEM LOSSES GW =           0.0000
        SYSTEM LOSSES SW =           0.0000          SYSTEM LOSSES SW =           0.0000

                TOTAL IN =  1429069952.0000                  TOTAL IN =          59.8345

          OUT:                                     OUT:
          ----                                     ----
               AG WELLS  =           0.0000                 AG WELLS  =           0.0000
      DIVERSION SEGMENTS =           0.0000        DIVERSION SEGMENTS =           0.0000
           GW IRRIGATION =   284324352.0000             GW IRRIGATION =          36.7191
           SW IRRIGATION =  1144767360.0000             SW IRRIGATION =          23.1159
        SYSTEM LOSSES GW =           0.0000          SYSTEM LOSSES GW =           0.0000
        SYSTEM LOSSES SW =           0.0000          SYSTEM LOSSES SW =           0.0000

               TOTAL OUT =  1429091712.0000                 TOTAL OUT =          59.8350

                IN - OUT =      -21760.0000                  IN - OUT =      -4.6158E-04

     PERCENT DISCREPANCY =          -0.00         PERCENT DISCREPANCY =          -0.00



1
  VOLUMETRIC BUDGET FOR ENTIRE MODEL AT END OF TIME STEP   30, STRESS PERIOD  44
  ------------------------------------------------------------------------------

     CUMULATIVE VOLUMES      L**3       RATES FOR THIS TIME STEP      L**3/T
     ------------------                 ------------------------

           IN:                                      IN:
           ---                                      ---
             STORAGE     =   452076480.0000               STORAGE     =          36.6133
       CONSTANT HEAD     =           0.0000         CONSTANT HEAD     =           0.0000
     HEAD DEP BOUNDS     =    32358342.0000       HEAD DEP BOUNDS     =           0.2863
      STREAM LEAKAGE     =  1355241216.0000        STREAM LEAKAGE     =          11.5489
        UZF RECHARGE     =     1883440.3750          UZF RECHARGE     =           0.0000
               GW ET     =           0.0000                 GW ET     =           0.0000
     SURFACE LEAKAGE     =           0.0000       SURFACE LEAKAGE     =           0.0000
           AG WELLS      =           0.0000             AG WELLS      =           0.0000

                TOTAL IN =  1841559424.0000                  TOTAL IN =          48.4485

          OUT:                                     OUT:
          ----                                     ----
             STORAGE     =   297830112.0000               STORAGE     =           0.2864
       CONSTANT HEAD     =           0.0000         CONSTANT HEAD     =           0.0000
     HEAD DEP BOUNDS     =    32916838.0000       HEAD DEP BOUNDS     =           0.2879
      STREAM LEAKAGE     =  1222712448.0000        STREAM LEAKAGE     =          11.1552
        UZF RECHARGE     =           0.0000          UZF RECHARGE     =           0.0000
               GW ET     =     3779571.7500                 GW ET     =           0.0000
     SURFACE LEAKAGE     =           0.0000       SURFACE LEAKAGE     =           0.0000
           AG WELLS      =   284324352.0000             AG WELLS      =          36.7191

               TOTAL OUT =  1841563392.0000                 TOTAL OUT =          48.4485

                IN - OUT =       -3968.0000                  IN - OUT =       3.8147E-06

     PERCENT DISCREPANCY =          -0.00         PERCENT DISCREPANCY =           0.00






         TIME SUMMARY AT END OF TIME STEP   30 IN STRESS PERIOD   44
                    SECONDS     MINUTES      HOURS       DAYS        YEARS
                    -----------------------------------------------------------
   TIME STEP LENGTH  87667.      1461.1      24.352      1.0147     2.77799E-03
 STRESS PERIOD TIME 2.63000E+06  43833.      730.56      30.440     8.33397E-02
         TOTAL TIME 1.13175E+08 1.88626E+06  31438.      1309.9      3.5863    
1
1
                            STRESS PERIOD NO.   45, LENGTH =   2630000.    
                            -----------------------------------------------

                              NUMBER OF TIME STEPS =    30

                               MULTIPLIER FOR DELT =     1.000

                            INITIAL TIME STEP SIZE =   87666.66    

 REUSING NON-PARAMETER GHB CELLS FROM LAST STRESS PERIOD

      2 GHB CELLS

 REUSING STREAM SEGMENT DATA FROM LAST STRESS PERIOD



            AREAL INFILTRATION RATE
 READING ON UNIT   19 WITH FORMAT: (10F4.0)            

            1           2           3           4           5           6           7           8           9          10
 ........................................................................................................................
   1   1.2000E-09   0.000       0.000       0.000       0.000       0.000       0.000       0.000       0.000       0.000    
   2   2.1000E-09  2.0000E-09  8.0000E-10  8.5000E-09   0.000       0.000       0.000       0.000       0.000       0.000    
   3   5.0000E-10  1.1000E-09  8.8000E-09  5.5000E-09   0.000       0.000       0.000       0.000       0.000       0.000    
   4   8.5000E-09  1.1000E-09  1.1000E-09  1.1000E-09  2.0000E-09   0.000       0.000       0.000       0.000       0.000    
   5   8.5000E-09  1.1000E-09  1.1000E-09  1.1000E-09  1.1000E-09   0.000       0.000       0.000       0.000       0.000    
   6   8.5000E-09  5.2000E-09  2.1000E-09  1.1000E-09  1.5000E-09   0.000       0.000       0.000       0.000       0.000    
   7   8.5000E-09  5.2000E-09  2.1000E-09  1.2000E-09  2.0000E-09   0.000       0.000       0.000       0.000       0.000    
   8   5.0000E-10  5.2000E-09  2.1000E-09  1.2000E-09  5.0000E-09   0.000       0.000       0.000       0.000       0.000    
   9   5.0000E-10  5.2000E-09  2.1000E-09  1.2000E-09  5.0000E-09   0.000       0.000       0.000       0.000       0.000    
  10   5.0000E-10  5.2000E-09  2.1000E-09  1.2000E-09  5.8000E-09   0.000       0.000       0.000       0.000       0.000    
  11   1.0000E-10  1.1000E-09  1.1000E-09  1.2000E-09  5.0000E-09   0.000       0.000       0.000       0.000       0.000    
  12   1.1000E-09  1.1000E-09  1.1000E-09  1.1000E-09  2.0000E-09   0.000       0.000       0.000       0.000       0.000    
  13   1.1000E-09  2.2000E-09  2.2000E-09  2.1000E-09  1.0000E-09   0.000       0.000       0.000       0.000       0.000    
  14   2.0000E-10  5.5000E-09  5.5000E-09  5.2000E-09  1.0000E-09   0.000       0.000       0.000       0.000       0.000    
  15    0.000      8.8000E-09  8.8000E-09   0.000       0.000       0.000       0.000       0.000       0.000       0.000    

                  ET RATE =  3.250000E-07

 USING ET EXTINCTION DEPTH FROM PREVIOUS STRESS PERIOD. CURRENT PERIOD IS:      45

 USING EXTINCTION WATER CONTENT FROM PREVIOUS STRESS PERIOD. CURRENT PERIOD IS:      45

 USING AIR ENTRY PRESSURE FROM PREVIOUS STRESS PERIOD. CURRENT PERIOD IS:      45

 USING ROOT PRESSURE HEAD FROM PREVIOUS STRESS PERIOD. CURRENT PERIOD IS:      45

 USING ROOT ACTIVITY FROM PREVIOUS STRESS PERIOD. CURRENT PERIOD IS:      45

 PROCESSING AG STRESS PERIOD DATA

 READING AG STRESS PERIOD DATA

 READING IRRIGATION SEGMENT

 READING IRRIGATION WELL

 READING SUPPLEMENTAL WELL

 END PROCESSING AG STRESS PERIOD DATA OPTIONS
 
 SOLVING FOR HEAD 
                                                   Max.-Head-Change                         Max.-Flux-Residual
  Residual-Control   Outer-Iter.   Inner-Iter.     Column Row Layer    Maximum-Head-Change  Column Row Layer    Maximum-Flux-Residual          L2-NORM 
          0                 1           2             4    7     1      -0.6078614170E-01       4    7    1        -0.3193318668E+01      0.6862699758E+01
          0                 2           2             4   13     1      -0.9638476881E-02       4   13    1        -0.5665842789E+00      0.1183871701E+01
          0                 3           2             7   13     1      -0.1701111587E-02       7   13    1        -0.9486327435E-01      0.2020954492E+00
          0                 4           2             7   13     1       0.1157862433E-03       7   13    1         0.6634924654E-02      0.9832044393E-02
          0                 5           1             7   13     1      -0.4603678681E-05       7   13    1        -0.2710609456E-03      0.2860550240E-03

    ------------------------------------------------
       NWT REQUIRED            5 OUTER ITERATIONS 
       AND A TOTAL OF          9 INNER ITERATIONS.
    ------------------------------------------------

 NO OUTPUT CONTROL FOR STRESS PERIOD   45   TIME STEP    1
 
 SOLVING FOR HEAD 
                                                   Max.-Head-Change                         Max.-Flux-Residual
  Residual-Control   Outer-Iter.   Inner-Iter.     Column Row Layer    Maximum-Head-Change  Column Row Layer    Maximum-Flux-Residual          L2-NORM 
          0                 1           2             4    7     1      -0.6008981833E-01       4    7    1        -0.3156783311E+01      0.6796999472E+01
          0                 2           2             4   13     1      -0.9644108736E-02       4   13    1        -0.5669126438E+00      0.1180530971E+01
          0                 3           2             7   13     1      -0.1696718965E-02       7   13    1        -0.9461868507E-01      0.2036864600E+00
          0                 4           2             7   13     1       0.1154857998E-03       7   13    1         0.6617723597E-02      0.9879350918E-02
          0                 5           1             7   13     1      -0.4587776418E-05       7   13    1        -0.2701252297E-03      0.2854812275E-03

    ------------------------------------------------
       NWT REQUIRED            5 OUTER ITERATIONS 
       AND A TOTAL OF          9 INNER ITERATIONS.
    ------------------------------------------------

 NO OUTPUT CONTROL FOR STRESS PERIOD   45   TIME STEP    2
 
 SOLVING FOR HEAD 
                                                   Max.-Head-Change                         Max.-Flux-Residual
  Residual-Control   Outer-Iter.   Inner-Iter.     Column Row Layer    Maximum-Head-Change  Column Row Layer    Maximum-Flux-Residual          L2-NORM 
          0                 1           2             4    7     1      -0.5939970131E-01       4    7    1        -0.3120555464E+01      0.6732888274E+01
          0                 2           2             4   13     1      -0.9649350068E-02       4   13    1        -0.5672181495E+00      0.1177267386E+01
          0                 3           2             7   13     1      -0.1692427731E-02       7   13    1        -0.9437974313E-01      0.2054082261E+00
          0                 4           2             7   13     1       0.1151935686E-03       7   13    1         0.6600990337E-02      0.9930379846E-02
          0                 5           1             7   13     1      -0.4579370183E-05       7   13    1        -0.2696295292E-03      0.2851128136E-03

    ------------------------------------------------
       NWT REQUIRED            5 OUTER ITERATIONS 
       AND A TOTAL OF          9 INNER ITERATIONS.
    ------------------------------------------------

 NO OUTPUT CONTROL FOR STRESS PERIOD   45   TIME STEP    3
 
 SOLVING FOR HEAD 
                                                   Max.-Head-Change                         Max.-Flux-Residual
  Residual-Control   Outer-Iter.   Inner-Iter.     Column Row Layer    Maximum-Head-Change  Column Row Layer    Maximum-Flux-Residual          L2-NORM 
          0                 1           2             4    7     1      -0.4802630990E-01       4    7    1        -0.2526526361E+01      0.5443153918E+01
          0                 2           2             4   13     1      -0.9654198352E-02       4   13    1        -0.5675006138E+00      0.1040381436E+01
          0                 3           2             4    7     1      -0.9541170669E-02       4    7    1        -0.5265727620E+00      0.1285274263E+01
          0                 4           2             4    7     1       0.3796515081E-03       4    7    1         0.2153681901E-01      0.5283243653E-01
          0                 5           1             4    7     1      -0.4681268572E-05       4    7    1        -0.2729379398E-03      0.7166547495E-03

    ------------------------------------------------
       NWT REQUIRED            5 OUTER ITERATIONS 
       AND A TOTAL OF          9 INNER ITERATIONS.
    ------------------------------------------------

 NO OUTPUT CONTROL FOR STRESS PERIOD   45   TIME STEP    4
 
 SOLVING FOR HEAD 
                                                   Max.-Head-Change                         Max.-Flux-Residual
  Residual-Control   Outer-Iter.   Inner-Iter.     Column Row Layer    Maximum-Head-Change  Column Row Layer    Maximum-Flux-Residual          L2-NORM 
          0                 1           2             4    7     1      -0.4694467030E-01       4    7    1        -0.2469830461E+01      0.5342763780E+01
          0                 2           2             4   13     1      -0.9658725740E-02       4   13    1        -0.5677643110E+00      0.1037054148E+01
          0                 3           2             4    7     1      -0.9868057257E-02       4    7    1        -0.5446066260E+00      0.1329323170E+01
          0                 4           2             4    7     1       0.3926585919E-03       4    7    1         0.2227440264E-01      0.5462403010E-01
          0                 5           1             4    7     1      -0.4841651638E-05       4    7    1        -0.2822854008E-03      0.7377452879E-03

    ------------------------------------------------
       NWT REQUIRED            5 OUTER ITERATIONS 
       AND A TOTAL OF          9 INNER ITERATIONS.
    ------------------------------------------------

 NO OUTPUT CONTROL FOR STRESS PERIOD   45   TIME STEP    5
 
 SOLVING FOR HEAD 
                                                   Max.-Head-Change                         Max.-Flux-Residual
  Residual-Control   Outer-Iter.   Inner-Iter.     Column Row Layer    Maximum-Head-Change  Column Row Layer    Maximum-Flux-Residual          L2-NORM 
          0                 1           2             4    7     1      -0.4587042370E-01       4    7    1        -0.2413509223E+01      0.5244555945E+01
          0                 2           2             4   13     1      -0.9662952542E-02       4   13    1        -0.5680104336E+00      0.1034167545E+01
          0                 3           2             4    7     1      -0.1019510249E-01       4    7    1        -0.5626491160E+00      0.1373411242E+01
          0                 4           2             4    7     1       0.4056719874E-03       4    7    1         0.2301233902E-01      0.5641775395E-01
          0                 5           1             4    7     1      -0.5002112779E-05       4    7    1        -0.2916373319E-03      0.7587583653E-03

    ------------------------------------------------
       NWT REQUIRED            5 OUTER ITERATIONS 
       AND A TOTAL OF          9 INNER ITERATIONS.
    ------------------------------------------------

 NO OUTPUT CONTROL FOR STRESS PERIOD   45   TIME STEP    6
 
 SOLVING FOR HEAD 
                                                   Max.-Head-Change                         Max.-Flux-Residual
  Residual-Control   Outer-Iter.   Inner-Iter.     Column Row Layer    Maximum-Head-Change  Column Row Layer    Maximum-Flux-Residual          L2-NORM 
          0                 1           2             4    7     1      -0.4480368440E-01       4    7    1        -0.2357569875E+01      0.5148487507E+01
          0                 2           2             4   13     1      -0.9666883799E-02       4   13    1        -0.5682392756E+00      0.1031716123E+01
          0                 3           2             4    7     1      -0.1052212502E-01       4    7    1        -0.5806902355E+00      0.1417512129E+01
          0                 4           2             4    7     1       0.4186844779E-03       4    7    1         0.2375021927E-01      0.5821283503E-01
          0                 5           1             4    7     1      -0.5162562381E-05       4    7    1        -0.3009885518E-03      0.7800615307E-03

    ------------------------------------------------
       NWT REQUIRED            5 OUTER ITERATIONS 
       AND A TOTAL OF          9 INNER ITERATIONS.
    ------------------------------------------------

 NO OUTPUT CONTROL FOR STRESS PERIOD   45   TIME STEP    7
 
 SOLVING FOR HEAD 
                                                   Max.-Head-Change                         Max.-Flux-Residual
  Residual-Control   Outer-Iter.   Inner-Iter.     Column Row Layer    Maximum-Head-Change  Column Row Layer    Maximum-Flux-Residual          L2-NORM 
          0                 1           2             4    7     1      -0.4374471942E-01       4    7    1        -0.2302027919E+01      0.5054542482E+01
          0                 2           2             4   13     1      -0.9670559431E-02       4   13    1        -0.5684531682E+00      0.1029697599E+01
          0                 3           2             4    7     1      -0.1084911424E-01       4    7    1        -0.5987294114E+00      0.1461622974E+01
          0                 4           2             4    7     1       0.4316956420E-03       4    7    1         0.2448801994E-01      0.6000878627E-01
          0                 5           1             4    7     1      -0.5322995630E-05       4    7    1        -0.3103387594E-03      0.8014950680E-03

    ------------------------------------------------
       NWT REQUIRED            5 OUTER ITERATIONS 
       AND A TOTAL OF          9 INNER ITERATIONS.
    ------------------------------------------------

 NO OUTPUT CONTROL FOR STRESS PERIOD   45   TIME STEP    8
 
 SOLVING FOR HEAD 
                                                   Max.-Head-Change                         Max.-Flux-Residual
  Residual-Control   Outer-Iter.   Inner-Iter.     Column Row Layer    Maximum-Head-Change  Column Row Layer    Maximum-Flux-Residual          L2-NORM 
          0                 1           2             4    7     1      -0.4269353973E-01       4    7    1        -0.2246884862E+01      0.4962702916E+01
          0                 2           2             4   13     1      -0.9674006188E-02       4   13    1        -0.5686537034E+00      0.1026655591E+01
          0                 3           2             4    7     1      -0.8732658306E-02       4    7    1        -0.4819509052E+00      0.1176812502E+01
          0                 4           2             4    7     1      -0.1968686763E-02       5    8    1        -0.1088845010E+00      0.2665445986E+00
          0                 5           1             4    7     1       0.7835501705E-04       5    8    1         0.4454470119E-02      0.1090380908E-01

    ------------------------------------------------
       NWT REQUIRED            5 OUTER ITERATIONS 
       AND A TOTAL OF          9 INNER ITERATIONS.
    ------------------------------------------------

 NO OUTPUT CONTROL FOR STRESS PERIOD   45   TIME STEP    9
 
 SOLVING FOR HEAD 
                                                   Max.-Head-Change                         Max.-Flux-Residual
  Residual-Control   Outer-Iter.   Inner-Iter.     Column Row Layer    Maximum-Head-Change  Column Row Layer    Maximum-Flux-Residual          L2-NORM 
          0                 1           2             4    7     1      -0.4165041074E-01       4    7    1        -0.2192156218E+01      0.4872945122E+01
          0                 2           2             4   13     1      -0.9677219974E-02       4   13    1        -0.5688406331E+00      0.1024678116E+01
          0                 3           2             5    6     1      -0.7361238233E-02       4    7    1        -0.4001523281E+00      0.9774721091E+00
          0                 4           2             4    7     1      -0.3691598715E-02       5    7    1        -0.2045616981E+00      0.4811628420E+00
          0                 5           2             5    6     1       0.3286003903E-03       5    6    1         0.1838931256E-01      0.3072660922E-01
          0                 6           1             5    6     1      -0.2237647754E-04       5    6    1        -0.1303039465E-02      0.1851056731E-02

    ------------------------------------------------
       NWT REQUIRED            6 OUTER ITERATIONS 
       AND A TOTAL OF         11 INNER ITERATIONS.
    ------------------------------------------------

 NO OUTPUT CONTROL FOR STRESS PERIOD   45   TIME STEP   10
 
 SOLVING FOR HEAD 
                                                   Max.-Head-Change                         Max.-Flux-Residual
  Residual-Control   Outer-Iter.   Inner-Iter.     Column Row Layer    Maximum-Head-Change  Column Row Layer    Maximum-Flux-Residual          L2-NORM 
          0                 1           2             4    7     1      -0.4061511709E-01       4    7    1        -0.2137830744E+01      0.4785258140E+01
          0                 2           2             4   13     1      -0.9680232038E-02       4   13    1        -0.5690157986E+00      0.1024239788E+01
          0                 3           2             5    6     1      -0.6444799170E-02       4    7    1        -0.3515546914E+00      0.8591106276E+00
          0                 4           2             4    7     1      -0.4787433227E-02       5    7    1        -0.2649285675E+00      0.6312899877E+00
          0                 5           2             5    6     1       0.4438654691E-03       5    6    1         0.2485462045E-01      0.4104103206E-01
          0                 6           1             5    6     1      -0.3022560767E-04       5    6    1        -0.1760297573E-02      0.2499529359E-02

    ------------------------------------------------
       NWT REQUIRED            6 OUTER ITERATIONS 
       AND A TOTAL OF         11 INNER ITERATIONS.
    ------------------------------------------------

 NO OUTPUT CONTROL FOR STRESS PERIOD   45   TIME STEP   11
 
 SOLVING FOR HEAD 
                                                   Max.-Head-Change                         Max.-Flux-Residual
  Residual-Control   Outer-Iter.   Inner-Iter.     Column Row Layer    Maximum-Head-Change  Column Row Layer    Maximum-Flux-Residual          L2-NORM 
          0                 1           2             4    7     1      -0.3958782943E-01       4    7    1        -0.2083918815E+01      0.4699627853E+01
          0                 2           2             4   13     1      -0.9683078618E-02       4   13    1        -0.5691813261E+00      0.1025343831E+01
          0                 3           2             5    7     1      -0.5996421796E-02       4    7    1        -0.3195702376E+00      0.7810880447E+00
          0                 4           2             4    7     1      -0.5569251001E-02       4    7    1        -0.3081250580E+00      0.7153952553E+00
          0                 5           2             5    7     1       0.5323920841E-03       5    7    1         0.2914241123E-01      0.6601809120E-01
          0                 6           1             5    7     1      -0.3625398500E-04       5    7    1        -0.2051989687E-02      0.4562748980E-02

    ------------------------------------------------
       NWT REQUIRED            6 OUTER ITERATIONS 
       AND A TOTAL OF         11 INNER ITERATIONS.
    ------------------------------------------------

 NO OUTPUT CONTROL FOR STRESS PERIOD   45   TIME STEP   12
 
 SOLVING FOR HEAD 
                                                   Max.-Head-Change                         Max.-Flux-Residual
  Residual-Control   Outer-Iter.   Inner-Iter.     Column Row Layer    Maximum-Head-Change  Column Row Layer    Maximum-Flux-Residual          L2-NORM 
          0                 1           2             4    7     1      -0.2781890848E-01       4    7    1        -0.1469177058E+01      0.3628216300E+01
          0                 2           2             4   13     1      -0.9685727889E-02       4   13    1        -0.5693353396E+00      0.1437988225E+01
          0                 3           2             4    7     1      -0.6665261904E-02       4    7    1        -0.3481755888E+00      0.8479018663E+00
          0                 4           2             4    7     1      -0.4426846398E-02       5    8    1        -0.2319819933E+00      0.5674305284E+00
          0                 5           2             4    7     1      -0.3998296897E-02       4    7    1        -0.2087546398E+00      0.5112059179E+00
          0                 6           2             4    7     1       0.3889251717E-03       4    7    1         0.2087595469E-01      0.5113110852E-01
          0                 7           1             4    7     1      -0.2648436321E-04       4    7    1        -0.1461337200E-02      0.3579759307E-02

    ------------------------------------------------
       NWT REQUIRED            7 OUTER ITERATIONS 
       AND A TOTAL OF         13 INNER ITERATIONS.
    ------------------------------------------------

 NO OUTPUT CONTROL FOR STRESS PERIOD   45   TIME STEP   13
 
 SOLVING FOR HEAD 
                                                   Max.-Head-Change                         Max.-Flux-Residual
  Residual-Control   Outer-Iter.   Inner-Iter.     Column Row Layer    Maximum-Head-Change  Column Row Layer    Maximum-Flux-Residual          L2-NORM 
          0                 1           2             4    7     1      -0.2671350743E-01       4    7    1        -0.1411181021E+01      0.3561450202E+01
          0                 2           2             4   13     1      -0.9688253919E-02       4   13    1        -0.5694822206E+00      0.1475615848E+01
          0                 3           2             4    7     1      -0.6810683272E-02       4    7    1        -0.3557649659E+00      0.8664422225E+00
          0                 4           2             4    7     1      -0.4352051608E-02       5    8    1        -0.2280667554E+00      0.5578507977E+00
          0                 5           2             4    7     1      -0.4097623575E-02       4    7    1        -0.2139402375E+00      0.5239095542E+00
          0                 6           2             4    7     1       0.3985869448E-03       4    7    1         0.2139452521E-01      0.5240172176E-01
          0                 7           1             4    7     1      -0.2714229456E-04       4    7    1        -0.1497637602E-02      0.3668715339E-02

    ------------------------------------------------
       NWT REQUIRED            7 OUTER ITERATIONS 
       AND A TOTAL OF         13 INNER ITERATIONS.
    ------------------------------------------------

 NO OUTPUT CONTROL FOR STRESS PERIOD   45   TIME STEP   14
 
 SOLVING FOR HEAD 
                                                   Max.-Head-Change                         Max.-Flux-Residual
  Residual-Control   Outer-Iter.   Inner-Iter.     Column Row Layer    Maximum-Head-Change  Column Row Layer    Maximum-Flux-Residual          L2-NORM 
          0                 1           2             4    7     1      -0.2561636985E-01       4    7    1        -0.1353614827E+01      0.3498268679E+01
          0                 2           2             4   13     1      -0.9690612222E-02       4   13    1        -0.5696192959E+00      0.1514189002E+01
          0                 3           2             4    7     1      -0.6954196625E-02       4    7    1        -0.3632546856E+00      0.8847511057E+00
          0                 4           2             4    7     1      -0.4283488883E-02       5    8    1        -0.2244768084E+00      0.5490678942E+00
          0                 5           2             4    7     1      -0.4190253799E-02       4    7    1        -0.2187761983E+00      0.5357567688E+00
          0                 6           2             4    7     1       0.4075973355E-03       4    7    1         0.2187813132E-01      0.5358667592E-01
          0                 7           1             4    7     1      -0.2775586883E-04       5    8    1        -0.1531501199E-02      0.3751674388E-02

    ------------------------------------------------
       NWT REQUIRED            7 OUTER ITERATIONS 
       AND A TOTAL OF         13 INNER ITERATIONS.
    ------------------------------------------------

 NO OUTPUT CONTROL FOR STRESS PERIOD   45   TIME STEP   15
 
 SOLVING FOR HEAD 
                                                   Max.-Head-Change                         Max.-Flux-Residual
  Residual-Control   Outer-Iter.   Inner-Iter.     Column Row Layer    Maximum-Head-Change  Column Row Layer    Maximum-Flux-Residual          L2-NORM 
          0                 1           2             4    7     1      -0.2452707366E-01       4    7    1        -0.1296455984E+01      0.3438726826E+01
          0                 2           2             4   13     1      -0.9692842185E-02       4   13    1        -0.5697489166E+00      0.1553663574E+01
          0                 3           2             4    7     1      -0.7095651607E-02       4    7    1        -0.3706368932E+00      0.9028085541E+00
          0                 4           2             4    7     1      -0.4220492880E-02       5    8    1        -0.2211774071E+00      0.5409966974E+00
          0                 5           2             4    7     1      -0.4276980153E-02       4    7    1        -0.2233039048E+00      0.5468489296E+00
          0                 6           2             4    7     1       0.4160334407E-03       4    7    1         0.2233091135E-01      0.5469610988E-01
          0                 7           1             4    7     1      -0.2833033616E-04       5    8    1        -0.1563216037E-02      0.3829346250E-02

    ------------------------------------------------
       NWT REQUIRED            7 OUTER ITERATIONS 
       AND A TOTAL OF         13 INNER ITERATIONS.
    ------------------------------------------------

 NO OUTPUT CONTROL FOR STRESS PERIOD   45   TIME STEP   16
 
 SOLVING FOR HEAD 
                                                   Max.-Head-Change                         Max.-Flux-Residual
  Residual-Control   Outer-Iter.   Inner-Iter.     Column Row Layer    Maximum-Head-Change  Column Row Layer    Maximum-Flux-Residual          L2-NORM 
          0                 1           2             4    7     1      -0.2371757243E-01       4    7    1        -0.1253904786E+01      0.3401190715E+01
          0                 2           2             4   13     1      -0.9694953547E-02       4   13    1        -0.5698716566E+00      0.1574468623E+01
          0                 3           2             4    7     1      -0.7156669682E-02       4    7    1        -0.3738194549E+00      0.9106716460E+00
          0                 4           2             4    7     1      -0.4206543076E-02       5    8    1        -0.2204387835E+00      0.5391975007E+00
          0                 5           2             4    7     1      -0.4319059707E-02       4    7    1        -0.2255005757E+00      0.5522311747E+00
          0                 6           2             4    7     1       0.4201266320E-03       4    7    1         0.2255058312E-01      0.5523444094E-01
          0                 7           1             4    7     1      -0.2860906769E-04       5    8    1        -0.1578606535E-02      0.3867035071E-02

    ------------------------------------------------
       NWT REQUIRED            7 OUTER ITERATIONS 
       AND A TOTAL OF         13 INNER ITERATIONS.
    ------------------------------------------------

 NO OUTPUT CONTROL FOR STRESS PERIOD   45   TIME STEP   17
 
 SOLVING FOR HEAD 
                                                   Max.-Head-Change                         Max.-Flux-Residual
  Residual-Control   Outer-Iter.   Inner-Iter.     Column Row Layer    Maximum-Head-Change  Column Row Layer    Maximum-Flux-Residual          L2-NORM 
          0                 1           2             4    7     1      -0.2307488920E-01       4    7    1        -0.1220062724E+01      0.3376123178E+01
          0                 2           2             5    8     1      -0.9739810034E-02       4   13    1        -0.5699872818E+00      0.1584292484E+01
          0                 3           2             4    7     1      -0.7168048480E-02       4    7    1        -0.3744103325E+00      0.9122414149E+00
          0                 4           2             4    7     1      -0.4221718563E-02       5    8    1        -0.2212208094E+00      0.5411227790E+00
          0                 5           2             4    7     1      -0.4333152049E-02       4    7    1        -0.2262360225E+00      0.5540341297E+00
          0                 6           2             4    7     1       0.4214974319E-03       4    7    1         0.2262412953E-01      0.5541477315E-01
          0                 7           1             4    7     1      -0.2870241376E-04       5    8    1        -0.1583764092E-02      0.3879660341E-02

    ------------------------------------------------
       NWT REQUIRED            7 OUTER ITERATIONS 
       AND A TOTAL OF         13 INNER ITERATIONS.
    ------------------------------------------------

 NO OUTPUT CONTROL FOR STRESS PERIOD   45   TIME STEP   18
 
 SOLVING FOR HEAD 
                                                   Max.-Head-Change                         Max.-Flux-Residual
  Residual-Control   Outer-Iter.   Inner-Iter.     Column Row Layer    Maximum-Head-Change  Column Row Layer    Maximum-Flux-Residual          L2-NORM 
          0                 1           2             4    7     1      -0.2244037148E-01       4    7    1        -0.1186646912E+01      0.3352341772E+01
          0                 2           2             5    8     1      -0.9826444902E-02       4   13    1        -0.5700958097E+00      0.1594052796E+01
          0                 3           2             4    7     1      -0.7179365513E-02       4    7    1        -0.3749979814E+00      0.9138043351E+00
          0                 4           2             4    7     1      -0.4236982412E-02       5    8    1        -0.2220074142E+00      0.5430592665E+00
          0                 5           2             4    7     1      -0.4347226409E-02       4    7    1        -0.2269705309E+00      0.5558347939E+00
          0                 6           2             4    7     1       0.4228664827E-03       4    7    1         0.2269758207E-01      0.5559487625E-01
          0                 7           1             4    7     1      -0.2879564137E-04       5    8    1        -0.1588915074E-02      0.3892269738E-02

    ------------------------------------------------
       NWT REQUIRED            7 OUTER ITERATIONS 
       AND A TOTAL OF         13 INNER ITERATIONS.
    ------------------------------------------------

 NO OUTPUT CONTROL FOR STRESS PERIOD   45   TIME STEP   19
 
 SOLVING FOR HEAD 
                                                   Max.-Head-Change                         Max.-Flux-Residual
  Residual-Control   Outer-Iter.   Inner-Iter.     Column Row Layer    Maximum-Head-Change  Column Row Layer    Maximum-Flux-Residual          L2-NORM 
          0                 1           2             4    7     1      -0.2181392691E-01       4    7    1        -0.1153653064E+01      0.3329800417E+01
          0                 2           2             5    8     1      -0.9912323715E-02       4   13    1        -0.5702018603E+00      0.1603756144E+01
          0                 3           2             4    7     1      -0.7190756852E-02       4    7    1        -0.3755895111E+00      0.9153777623E+00
          0                 4           2             4    7     1      -0.4252206853E-02       5    8    1        -0.2227919438E+00      0.5449906841E+00
          0                 5           2             4    7     1      -0.4361263600E-02       4    7    1        -0.2277030991E+00      0.5576307106E+00
          0                 6           2             4    7     1       0.4242319176E-03       4    7    1         0.2277084060E-01      0.5577450446E-01
          0                 7           1             4    7     1      -0.2888862202E-04       5    8    1        -0.1594052485E-02      0.3904845564E-02

    ------------------------------------------------
       NWT REQUIRED            7 OUTER ITERATIONS 
       AND A TOTAL OF         13 INNER ITERATIONS.
    ------------------------------------------------

 NO OUTPUT CONTROL FOR STRESS PERIOD   45   TIME STEP   20
 
 SOLVING FOR HEAD 
                                                   Max.-Head-Change                         Max.-Flux-Residual
  Residual-Control   Outer-Iter.   Inner-Iter.     Column Row Layer    Maximum-Head-Change  Column Row Layer    Maximum-Flux-Residual          L2-NORM 
          0                 1           2             4    7     1      -0.2119551938E-01       4    7    1        -0.1121079970E+01      0.3308469600E+01
          0                 2           2             5    8     1      -0.9997481798E-02       4   13    1        -0.5703000843E+00      0.1613402350E+01
          0                 3           2             4    7     1      -0.7202198848E-02       4    7    1        -0.3761836938E+00      0.9169580872E+00
          0                 4           2             4    7     1      -0.4267412516E-02       5    8    1        -0.2235754903E+00      0.5469196916E+00
          0                 5           2             4    7     1      -0.4375293523E-02       4    7    1        -0.2284352885E+00      0.5594257014E+00
          0                 6           2             4    7     1       0.4255966461E-03       4    7    1         0.2284406124E-01      0.5595404005E-01
          0                 7           1             4    7     1      -0.2898155509E-04       5    8    1        -0.1599187239E-02      0.3917415146E-02

    ------------------------------------------------
       NWT REQUIRED            7 OUTER ITERATIONS 
       AND A TOTAL OF         13 INNER ITERATIONS.
    ------------------------------------------------

 NO OUTPUT CONTROL FOR STRESS PERIOD   45   TIME STEP   21
 
 SOLVING FOR HEAD 
                                                   Max.-Head-Change                         Max.-Flux-Residual
  Residual-Control   Outer-Iter.   Inner-Iter.     Column Row Layer    Maximum-Head-Change  Column Row Layer    Maximum-Flux-Residual          L2-NORM 
          0                 1           2             4    7     1      -0.2058517304E-01       4    7    1        -0.1088929043E+01      0.3288317109E+01
          0                 2           2             5    8     1      -0.1008194697E-01       4   13    1        -0.5703950026E+00      0.1622993802E+01
          0                 3           2             4    7     1      -0.7213646984E-02       4    7    1        -0.3767782076E+00      0.9185395186E+00
          0                 4           2             4    7     1      -0.4282649517E-02       5    8    1        -0.2243606916E+00      0.5488527214E+00
          0                 5           2             4    7     1      -0.4389274633E-02       4    7    1        -0.2291649300E+00      0.5612144500E+00
          0                 6           2             4    7     1       0.4269566261E-03       4    7    1         0.2291702709E-01      0.5613295128E-01
          0                 7           1             4    7     1      -0.2907416487E-04       5    8    1        -0.1604304155E-02      0.3929940881E-02

    ------------------------------------------------
       NWT REQUIRED            7 OUTER ITERATIONS 
       AND A TOTAL OF         13 INNER ITERATIONS.
    ------------------------------------------------

 NO OUTPUT CONTROL FOR STRESS PERIOD   45   TIME STEP   22
 
 SOLVING FOR HEAD 
                                                   Max.-Head-Change                         Max.-Flux-Residual
  Residual-Control   Outer-Iter.   Inner-Iter.     Column Row Layer    Maximum-Head-Change  Column Row Layer    Maximum-Flux-Residual          L2-NORM 
          0                 1           2             4    7     1      -0.1998253536E-01       4    7    1        -0.1057181881E+01      0.3269305934E+01
          0                 2           2             5    8     1      -0.1016578051E-01       4   13    1        -0.5704836275E+00      0.1632533221E+01
          0                 3           2             4    7     1      -0.7225080845E-02       4    7    1        -0.3773719857E+00      0.9201251774E+00
          0                 4           2             4    7     1      -0.4297892499E-02       5    8    1        -0.2251462218E+00      0.5507865861E+00
          0                 5           2             4    7     1      -0.4403291665E-02       4    7    1        -0.2298964476E+00      0.5630077950E+00
          0                 6           2             4    7     1       0.4283201002E-03       4    7    1         0.2299018054E-01      0.5631232219E-01
          0                 7           1             4    7     1      -0.2916701215E-04       5    8    1        -0.1609434176E-02      0.3942498889E-02

    ------------------------------------------------
       NWT REQUIRED            7 OUTER ITERATIONS 
       AND A TOTAL OF         13 INNER ITERATIONS.
    ------------------------------------------------

 NO OUTPUT CONTROL FOR STRESS PERIOD   45   TIME STEP   23
 
 SOLVING FOR HEAD 
                                                   Max.-Head-Change                         Max.-Flux-Residual
  Residual-Control   Outer-Iter.   Inner-Iter.     Column Row Layer    Maximum-Head-Change  Column Row Layer    Maximum-Flux-Residual          L2-NORM 
          0                 1           2             6    7     1      -0.1990752269E-01       6    7    1        -0.1055531738E+01      0.3251409443E+01
          0                 2           2             5    8     1      -0.1024897447E-01       4   13    1        -0.5705707957E+00      0.1642023963E+01
          0                 3           2             4    7     1      -0.7236570033E-02       4    7    1        -0.3779686730E+00      0.9217117722E+00
          0                 4           2             4    7     1      -0.4313079701E-02       5    8    1        -0.2259288816E+00      0.5527133103E+00
          0                 5           2             4    7     1      -0.4417305126E-02       4    7    1        -0.2306277796E+00      0.5648006782E+00
          0                 6           2             4    7     1       0.4296832277E-03       4    7    1         0.2306331546E-01      0.5649164694E-01
          0                 7           1             4    7     1      -0.2925983623E-04       5    8    1        -0.1614562859E-02      0.3955053613E-02

    ------------------------------------------------
       NWT REQUIRED            7 OUTER ITERATIONS 
       AND A TOTAL OF         13 INNER ITERATIONS.
    ------------------------------------------------

 NO OUTPUT CONTROL FOR STRESS PERIOD   45   TIME STEP   24
 
 SOLVING FOR HEAD 
                                                   Max.-Head-Change                         Max.-Flux-Residual
  Residual-Control   Outer-Iter.   Inner-Iter.     Column Row Layer    Maximum-Head-Change  Column Row Layer    Maximum-Flux-Residual          L2-NORM 
          0                 1           2             6    7     1      -0.1991141692E-01       6    7    1        -0.1056025762E+01      0.3234584800E+01
          0                 2           2             5    8     1      -0.1033158368E-01       4   13    1        -0.5706522361E+00      0.1651465004E+01
          0                 3           2             4    7     1      -0.7248091308E-02       4    7    1        -0.3785670550E+00      0.9233024518E+00
          0                 4           2             4    7     1      -0.4328286512E-02       5    8    1        -0.2267126109E+00      0.5546425985E+00
          0                 5           2             4    7     1      -0.4431270945E-02       4    7    1        -0.2313566251E+00      0.5665874661E+00
          0                 6           2             4    7     1       0.4310417200E-03       4    7    1         0.2313620169E-01      0.5667036197E-01
          0                 7           1             4    7     1      -0.2935234460E-04       5    8    1        -0.1619674117E-02      0.3967565666E-02

    ------------------------------------------------
       NWT REQUIRED            7 OUTER ITERATIONS 
       AND A TOTAL OF         13 INNER ITERATIONS.
    ------------------------------------------------

 NO OUTPUT CONTROL FOR STRESS PERIOD   45   TIME STEP   25
 
 SOLVING FOR HEAD 
                                                   Max.-Head-Change                         Max.-Flux-Residual
  Residual-Control   Outer-Iter.   Inner-Iter.     Column Row Layer    Maximum-Head-Change  Column Row Layer    Maximum-Flux-Residual          L2-NORM 
          0                 1           2             6    7     1      -0.1991159009E-01       6    7    1        -0.1056314607E+01      0.3218819173E+01
          0                 2           2             5    8     1      -0.1041360851E-01       4   13    1        -0.5707314517E+00      0.1660859854E+01
          0                 3           2             4    7     1      -0.7259617578E-02       4    7    1        -0.3791657163E+00      0.9248931770E+00
          0                 4           2             4    7     1      -0.4343506509E-02       5    8    1        -0.2274970761E+00      0.5565736291E+00
          0                 5           2             4    7     1      -0.4445249132E-02       4    7    1        -0.2320861170E+00      0.5683758312E+00
          0                 6           2             4    7     1       0.4324014157E-03       4    7    1         0.2320915257E-01      0.5684923476E-01
          0                 7           1             4    7     1      -0.2944493485E-04       5    8    1        -0.1624789868E-02      0.3980088715E-02

    ------------------------------------------------
       NWT REQUIRED            7 OUTER ITERATIONS 
       AND A TOTAL OF         13 INNER ITERATIONS.
    ------------------------------------------------

 NO OUTPUT CONTROL FOR STRESS PERIOD   45   TIME STEP   26
 
 SOLVING FOR HEAD 
                                                   Max.-Head-Change                         Max.-Flux-Residual
  Residual-Control   Outer-Iter.   Inner-Iter.     Column Row Layer    Maximum-Head-Change  Column Row Layer    Maximum-Flux-Residual          L2-NORM 
          0                 1           2             3    7     1      -0.2003850129E-01       6    7    1        -0.1056380925E+01      0.3204073119E+01
          0                 2           2             5    8     1      -0.1049505836E-01       4   13    1        -0.5708058997E+00      0.1670208955E+01
          0                 3           2             4    7     1      -0.7271170449E-02       4    7    1        -0.3797657952E+00      0.9264870844E+00
          0                 4           2             4    7     1      -0.4358723829E-02       5    8    1        -0.2282814720E+00      0.5585044267E+00
          0                 5           2             4    7     1      -0.4459181903E-02       4    7    1        -0.2328132388E+00      0.5701583804E+00
          0                 6           2             4    7     1       0.4337566939E-03       4    7    1         0.2328186644E-01      0.5702752583E-01
          0                 7           1             4    7     1      -0.2953722417E-04       5    8    1        -0.1629888948E-02      0.3992571080E-02

    ------------------------------------------------
       NWT REQUIRED            7 OUTER ITERATIONS 
       AND A TOTAL OF         13 INNER ITERATIONS.
    ------------------------------------------------

 NO OUTPUT CONTROL FOR STRESS PERIOD   45   TIME STEP   27
 
 SOLVING FOR HEAD 
                                                   Max.-Head-Change                         Max.-Flux-Residual
  Residual-Control   Outer-Iter.   Inner-Iter.     Column Row Layer    Maximum-Head-Change  Column Row Layer    Maximum-Flux-Residual          L2-NORM 
          0                 1           2             3    7     1      -0.2016440870E-01       6    7    1        -0.1056252911E+01      0.3190317586E+01
          0                 2           2             5    8     1      -0.1057602147E-01       4   13    1        -0.5708774351E+00      0.1679515482E+01
          0                 3           2             4    7     1      -0.7282709113E-02       4    7    1        -0.3803651557E+00      0.9280784425E+00
          0                 4           2             4    7     1      -0.4373979088E-02       5    8    1        -0.2290679203E+00      0.5604401623E+00
          0                 5           2             4    7     1      -0.4473138264E-02       4    7    1        -0.2335415932E+00      0.5719439399E+00
          0                 6           2             4    7     1       0.4351142662E-03       4    7    1         0.2335470355E-01      0.5720611799E-01
          0                 7           1             4    7     1      -0.2962966970E-04       5    8    1        -0.1634996603E-02      0.4005074578E-02

    ------------------------------------------------
       NWT REQUIRED            7 OUTER ITERATIONS 
       AND A TOTAL OF         13 INNER ITERATIONS.
    ------------------------------------------------

 NO OUTPUT CONTROL FOR STRESS PERIOD   45   TIME STEP   28
 
 SOLVING FOR HEAD 
                                                   Max.-Head-Change                         Max.-Flux-Residual
  Residual-Control   Outer-Iter.   Inner-Iter.     Column Row Layer    Maximum-Head-Change  Column Row Layer    Maximum-Flux-Residual          L2-NORM 
          0                 1           2             3    7     1      -0.2028439177E-01       6    7    1        -0.1055956728E+01      0.3177525298E+01
          0                 2           2             5    8     1      -0.1065644904E-01       5    8    1        -0.5745384302E+00      0.1688770155E+01
          0                 3           2             4    7     1      -0.7294312733E-02       4    7    1        -0.3809679407E+00      0.9296772566E+00
          0                 4           2             4    7     1      -0.4389177607E-02       5    8    1        -0.2298514827E+00      0.5623687732E+00
          0                 5           2             4    7     1      -0.4486995258E-02       4    7    1        -0.2342647603E+00      0.5737167798E+00
          0                 6           2             4    7     1       0.4364621736E-03       4    7    1         0.2342702194E-01      0.5738343851E-01
          0                 7           1             4    7     1      -0.2972145751E-04       5    8    1        -0.1640067912E-02      0.4017489124E-02

    ------------------------------------------------
       NWT REQUIRED            7 OUTER ITERATIONS 
       AND A TOTAL OF         13 INNER ITERATIONS.
    ------------------------------------------------

 NO OUTPUT CONTROL FOR STRESS PERIOD   45   TIME STEP   29
 
 SOLVING FOR HEAD 
                                                   Max.-Head-Change                         Max.-Flux-Residual
  Residual-Control   Outer-Iter.   Inner-Iter.     Column Row Layer    Maximum-Head-Change  Column Row Layer    Maximum-Flux-Residual          L2-NORM 
          0                 1           2             3    7     1      -0.2039911438E-01       6    7    1        -0.1055472880E+01      0.3165697878E+01
          0                 2           2             5    8     1      -0.1073639210E-01       5    8    1        -0.5788069658E+00      0.1698001567E+01
          0                 3           2             4    7     1      -0.7305913243E-02       4    7    1        -0.3815705849E+00      0.9312749726E+00
          0                 4           2             4    7     1      -0.4404376416E-02       5    8    1        -0.2306351449E+00      0.5642975066E+00
          0                 5           2             4    7     1      -0.4500984632E-02       4    7    1        -0.2349948402E+00      0.5755065438E+00
          0                 6           2             4    7     1       0.4378229576E-03       4    7    1         0.2350003161E-01      0.5756245202E-01
          0                 7           1             4    7     1      -0.2981412196E-04       5    8    1        -0.1645187551E-02      0.4030022191E-02

    ------------------------------------------------
       NWT REQUIRED            7 OUTER ITERATIONS 
       AND A TOTAL OF         13 INNER ITERATIONS.
    ------------------------------------------------

 NO OUTPUT CONTROL FOR STRESS PERIOD   45   TIME STEP   30



 STREAM LISTING     PERIOD     45   STEP       30

 LAYER ROW COL. STREAM  RCH.  FLOW INTO     FLOW TO   FLOW OUT OF   OVRLND.     DIRECT     STREAM       STREAM     STREAM     STREAM   STREAMBED  STREAMBED
                SEG.NO.  NO.  STRM. RCH.    AQUIFER    STRM. RCH.    RUNOFF     PRECIP       ET          HEAD       DEPTH      WIDTH   CONDCTNC.   GRADIENT

   1    1    1     1     1    2.7749E+01  2.5751E-01   2.7492E+01  0.000E+00  0.000E+00  0.000E+00  1.09427E+03  1.218E+00  1.357E+01  6.105E-02  1.406E+00
   1    2    2     1     2    2.7492E+01  3.9832E-01   2.7093E+01  0.000E+00  0.000E+00  0.000E+00  1.08927E+03  1.213E+00  1.351E+01  9.454E-02  1.404E+00
   1    3    3     1     3    2.7093E+01  3.3923E-01   2.6754E+01  0.000E+00  0.000E+00  0.000E+00  1.08363E+03  1.208E+00  1.344E+01  8.062E-02  1.403E+00
   1    3    4     1     4    2.6754E+01  3.1200E-01   2.6442E+01  0.000E+00  0.000E+00  0.000E+00  1.07861E+03  1.203E+00  1.337E+01  7.422E-02  1.401E+00
   1    4    5     2     1    2.4442E+01  3.2655E-01   2.4116E+01  0.000E+00  0.000E+00  0.000E+00  1.07312E+03  1.187E+00  1.200E+01  7.800E-02  1.396E+00
   1    5    6     2     2    2.4116E+01  2.5068E-01   2.3865E+01  0.000E+00  0.000E+00  0.000E+00  1.06769E+03  1.178E+00  1.200E+01  6.000E-02  1.393E+00
   1    6    6     2     3    2.3865E+01  2.5024E-01   2.3615E+01  0.000E+00  0.000E+00  0.000E+00  1.06296E+03  1.171E+00  1.200E+01  6.000E-02  1.390E+00
   1    7    6     2     4    2.3615E+01  2.4979E-01   2.3365E+01  0.000E+00  0.000E+00  0.000E+00  1.05824E+03  1.163E+00  1.200E+01  6.000E-02  1.388E+00
   1    8    6     2     5    2.3365E+01  2.4935E-01   2.3115E+01  0.000E+00  0.000E+00  0.000E+00  1.05351E+03  1.156E+00  1.200E+01  6.000E-02  1.385E+00
   1    3    5     3     1    2.0000E+00  2.8252E-01   1.7175E+00  0.000E+00  0.000E+00  0.000E+00  1.07555E+03  1.909E+00  9.636E+00  7.227E-02  1.955E+00
   1    3    6     3     2    1.7175E+00  2.4905E-01   1.4684E+00  0.000E+00  0.000E+00  0.000E+00  1.07264E+03  1.727E+00  8.909E+00  6.682E-02  1.864E+00
   1    3    7     3     3    1.4684E+00  1.9718E-01   1.2712E+00  0.000E+00  0.000E+00  0.000E+00  1.06987E+03  1.555E+00  8.218E+00  5.547E-02  1.777E+00
   1    4    8     3     4    1.2712E+00  2.2567E-01   1.0456E+00  0.000E+00  0.000E+00  0.000E+00  1.06682E+03  1.364E+00  7.455E+00  6.709E-02  1.682E+00
   1    5    8     3     5    1.0456E+00  1.5790E-01   8.8768E-01  0.000E+00  0.000E+00  0.000E+00  1.06362E+03  1.164E+00  6.655E+00  4.991E-02  1.582E+00
   1    6    8     3     6    8.8768E-01  5.5980E-02   8.3170E-01  0.000E+00  0.000E+00  0.000E+00  1.06158E+03  1.036E+00  6.145E+00  1.844E-02  1.518E+00
   1    5   10     4     1    1.0000E+01  9.0919E-02   9.9091E+00  0.000E+00  0.000E+00  0.000E+00  1.07836E+03  6.368E-01  1.000E+01  2.500E-02  1.212E+00
   1    5    9     4     2    9.9091E+00  1.8158E-01   9.7275E+00  0.000E+00  0.000E+00  0.000E+00  1.07154E+03  6.315E-01  1.000E+01  5.000E-02  1.211E+00
   1    6    8     4     3    9.7275E+00  1.2689E-01   9.6006E+00  0.000E+00  0.000E+00  0.000E+00  1.06381E+03  6.256E-01  1.000E+01  3.500E-02  1.209E+00
   1    6    8     5     1    1.0432E+01  2.2686E-01   1.0205E+01  0.000E+00  0.000E+00  0.000E+00  1.05868E+03  6.790E-01  1.542E+01  6.166E-02  1.226E+00
   1    7    7     5     2    1.0205E+01  2.7894E-01   9.9265E+00  0.000E+00  0.000E+00  0.000E+00  1.05417E+03  6.732E-01  1.519E+01  7.594E-02  1.224E+00
   1    8    7     5     3    9.9265E+00  1.9221E-01   9.7343E+00  0.000E+00  0.000E+00  0.000E+00  1.04992E+03  6.676E-01  1.497E+01  5.241E-02  1.223E+00
   1    8    6     5     4    9.7343E+00  1.3577E-01   9.5985E+00  0.000E+00  0.000E+00  0.000E+00  1.04691E+03  6.637E-01  1.482E+01  3.706E-02  1.221E+00
   1    9    6     6     1    9.5985E+00  2.2097E-01   9.3776E+00  0.000E+00  0.000E+00  0.000E+00  1.04341E+03  6.828E-01  1.200E+01  6.000E-02  1.228E+00
   1   10    7     6     2    9.3776E+00  2.2039E-01   9.1572E+00  0.000E+00  0.000E+00  0.000E+00  1.03885E+03  6.732E-01  1.200E+01  6.000E-02  1.224E+00
   1   11    7     6     3    9.1572E+00  2.1981E-01   8.9374E+00  0.000E+00  0.000E+00  0.000E+00  1.03430E+03  6.636E-01  1.200E+01  6.000E-02  1.221E+00
   1   12    7     6     4    8.9374E+00  2.1923E-01   8.7181E+00  0.000E+00  0.000E+00  0.000E+00  1.02974E+03  6.539E-01  1.200E+01  6.000E-02  1.218E+00
   1   13    7     6     5    8.7181E+00 -1.0686E-01   8.8250E+00  0.000E+00  0.000E+00  0.000E+00  1.02656E+03  6.514E-01  1.200E+01  2.400E-01 -1.484E-01
   1   14    9     7     1    1.5000E+02  1.3440E+00   1.4866E+02  0.000E+00  0.000E+00  0.000E+00  1.03987E+03  2.288E+00  5.529E+01  5.593E-01  8.010E-01
   1   13    8     7     2    1.4866E+02  1.8506E+00   1.4681E+02  0.000E+00  0.000E+00  0.000E+00  1.03478E+03  2.279E+00  5.526E+01  6.148E-01  1.003E+00
   1   13    7     7     3    1.4681E+02  1.4988E+00   1.4531E+02  0.000E+00  0.000E+00  0.000E+00  1.02969E+03  2.270E+00  5.522E+01  5.584E-01  8.946E-01
   1   13    6     8     1    1.5413E+02  8.5343E-01   1.5328E+02  0.000E+00  0.000E+00  0.000E+00  1.02472E+03  2.843E+00  4.122E+01  4.200E-01  6.773E-01
   1   13    5     8     2    1.5328E+02  1.2624E-01   1.5315E+02  0.000E+00  0.000E+00  0.000E+00  1.01846E+03  2.839E+00  4.117E+01  4.195E-01  1.003E-01
   1   13    4     8     3    1.5315E+02 -2.5763E+00   1.5573E+02  0.000E+00  0.000E+00  0.000E+00  1.01222E+03  2.848E+00  4.129E+01  4.208E+00 -2.041E-01
   1   13    3     8     4    1.5573E+02 -3.7050E+00   1.5943E+02  0.000E+00  0.000E+00  0.000E+00  1.00599E+03  2.869E+00  4.161E+01  4.240E+00 -2.913E-01
   1   13    2     8     5    1.5943E+02 -2.5991E+00   1.6203E+02  0.000E+00  0.000E+00  0.000E+00  9.99766E+02  2.891E+00  4.192E+01  4.271E+00 -2.028E-01
   1   13    1     8     6    1.6203E+02 -1.9971E+00   1.6403E+02  0.000E+00  0.000E+00  0.000E+00  9.94781E+02  2.906E+00  4.214E+01  2.577E+00 -2.584E-01
   1    8    6     9     1    2.3115E+01  0.0000E+00   2.3115E+01  0.000E+00  0.000E+00  0.000E+00  1.08250E+03  3.746E+00  4.000E+00  0.000E+00  2.249E+00
   1    8    5     9     2    2.3115E+01  0.0000E+00   2.3115E+01  0.000E+00  0.000E+00  0.000E+00  1.08200E+03  3.746E+00  4.000E+00  0.000E+00  2.249E+00





UNSATURATED ZONE PACKAGE VOLUMETRIC BUDGET FOR  TIME STEP    30 STRESS PERIOD   45
  ------------------------------------------------------------------------------



     CUMULATIVE VOLUMES      L**3       RATES FOR THIS TIME STEP      L**3/T
     ------------------                 ------------------------

           IN:                                      IN:
           ---                                      ---
        INFILTRATION =  2066977521.1663          INFILTRATION =          52.9928

          OUT:                                     OUT:
          ----                                     ----
              UZF ET =  1932638335.6671                UZF ET =          52.8575
        UZF RECHARGE =     1883440.3295          UZF RECHARGE =       0.0000E+00

            IN - OUT =   132455745.1696              IN - OUT =           0.1352

          STORAGE:                                 STORAGE:
          --------                                 --------
      STORAGE CHANGE =   132457576.4718        STORAGE CHANGE =           0.1352

 PERCENT DISCREPANCY IS DIFFERENCE BETWEEN IN-OUT MINUS CHANGE IN STORAGE
 DIVIDED BY THE AVERAGE OF IN AND OUT TIMES 100

 PERCENT DISCREPANCY =          -0.00     PERCENT DISCREPANCY =          -0.00






1
  VOLUMETRIC BUDGET FOR ENTIRE MODEL AT END OF TIME STEP   30, STRESS PERIOD  45
  ------------------------------------------------------------------------------

     CUMULATIVE VOLUMES      L**3       RATES FOR THIS TIME STEP      L**3/T
     ------------------                 ------------------------

           IN:                                      IN:
           ---                                      ---
               AG WELLS  =   351308352.0000                 AG WELLS  =          25.4694
      DIVERSION SEGMENTS =  1205540480.0000        DIVERSION SEGMENTS =          23.1155
           GW IRRIGATION =           0.0000             GW IRRIGATION =           0.0000
           SW IRRIGATION =           0.0000             SW IRRIGATION =           0.0000
        SYSTEM LOSSES GW =           0.0000          SYSTEM LOSSES GW =           0.0000
        SYSTEM LOSSES SW =           0.0000          SYSTEM LOSSES SW =           0.0000

                TOTAL IN =  1556848896.0000                  TOTAL IN =          48.5848

          OUT:                                     OUT:
          ----                                     ----
               AG WELLS  =           0.0000                 AG WELLS  =           0.0000
      DIVERSION SEGMENTS =           0.0000        DIVERSION SEGMENTS =           0.0000
           GW IRRIGATION =   351308352.0000             GW IRRIGATION =          25.4694
           SW IRRIGATION =  1205562240.0000             SW IRRIGATION =          23.1159
        SYSTEM LOSSES GW =           0.0000          SYSTEM LOSSES GW =           0.0000
        SYSTEM LOSSES SW =           0.0000          SYSTEM LOSSES SW =           0.0000

               TOTAL OUT =  1556870656.0000                 TOTAL OUT =          48.5853

                IN - OUT =      -21760.0000                  IN - OUT =      -4.6158E-04

     PERCENT DISCREPANCY =          -0.00         PERCENT DISCREPANCY =          -0.00



1
  VOLUMETRIC BUDGET FOR ENTIRE MODEL AT END OF TIME STEP   30, STRESS PERIOD  45
  ------------------------------------------------------------------------------

     CUMULATIVE VOLUMES      L**3       RATES FOR THIS TIME STEP      L**3/T
     ------------------                 ------------------------

           IN:                                      IN:
           ---                                      ---
             STORAGE     =   518306688.0000               STORAGE     =          25.0810
       CONSTANT HEAD     =           0.0000         CONSTANT HEAD     =           0.0000
     HEAD DEP BOUNDS     =    33111342.0000       HEAD DEP BOUNDS     =           0.2863
      STREAM LEAKAGE     =  1385672576.0000        STREAM LEAKAGE     =          11.5886
        UZF RECHARGE     =     1883440.3750          UZF RECHARGE     =           0.0000
               GW ET     =           0.0000                 GW ET     =           0.0000
     SURFACE LEAKAGE     =           0.0000       SURFACE LEAKAGE     =           0.0000
           AG WELLS      =           0.0000             AG WELLS      =           0.0000

                TOTAL IN =  1938973952.0000                  TOTAL IN =          36.9559

          OUT:                                     OUT:
          ----                                     ----
             STORAGE     =   298450784.0000               STORAGE     =           0.2147
       CONSTANT HEAD     =           0.0000         CONSTANT HEAD     =           0.0000
     HEAD DEP BOUNDS     =    33672724.0000       HEAD DEP BOUNDS     =           0.2871
      STREAM LEAKAGE     =  1251766528.0000        STREAM LEAKAGE     =          10.9843
        UZF RECHARGE     =           0.0000          UZF RECHARGE     =           0.0000
               GW ET     =     3779571.7500                 GW ET     =           0.0000
     SURFACE LEAKAGE     =           0.0000       SURFACE LEAKAGE     =           0.0000
           AG WELLS      =   351308352.0000             AG WELLS      =          25.4694

               TOTAL OUT =  1938978048.0000                 TOTAL OUT =          36.9555

                IN - OUT =       -4096.0000                  IN - OUT =       3.9673E-04

     PERCENT DISCREPANCY =          -0.00         PERCENT DISCREPANCY =           0.00






         TIME SUMMARY AT END OF TIME STEP   30 IN STRESS PERIOD   45
                    SECONDS     MINUTES      HOURS       DAYS        YEARS
                    -----------------------------------------------------------
   TIME STEP LENGTH  87667.      1461.1      24.352      1.0147     2.77799E-03
 STRESS PERIOD TIME 2.63000E+06  43833.      730.56      30.440     8.33397E-02
         TOTAL TIME 1.15805E+08 1.93009E+06  32168.      1340.3      3.6696    
1
1
                            STRESS PERIOD NO.   46, LENGTH =   2630000.    
                            -----------------------------------------------

                              NUMBER OF TIME STEPS =    30

                               MULTIPLIER FOR DELT =     1.000

                            INITIAL TIME STEP SIZE =   87666.66    

 REUSING NON-PARAMETER GHB CELLS FROM LAST STRESS PERIOD

      2 GHB CELLS

 REUSING STREAM SEGMENT DATA FROM LAST STRESS PERIOD



            AREAL INFILTRATION RATE
 READING ON UNIT   19 WITH FORMAT: (10F4.0)            

            1           2           3           4           5           6           7           8           9          10
 ........................................................................................................................
   1   1.2000E-09   0.000       0.000       0.000       0.000       0.000       0.000       0.000       0.000       0.000    
   2   2.1000E-09  2.0000E-09  8.0000E-10  8.5000E-09   0.000       0.000       0.000       0.000       0.000       0.000    
   3   5.0000E-10  1.1000E-09  8.8000E-09  5.5000E-09   0.000       0.000       0.000       0.000       0.000       0.000    
   4   8.5000E-09  1.1000E-09  1.1000E-09  1.1000E-09  2.0000E-09   0.000       0.000       0.000       0.000       0.000    
   5   8.5000E-09  1.1000E-09  1.1000E-09  1.1000E-09  1.1000E-09   0.000       0.000       0.000       0.000       0.000    
   6   8.5000E-09  5.2000E-09  2.1000E-09  1.1000E-09  1.5000E-09   0.000       0.000       0.000       0.000       0.000    
   7   8.5000E-09  5.2000E-09  2.1000E-09  1.2000E-09  2.0000E-09   0.000       0.000       0.000       0.000       0.000    
   8   5.0000E-10  5.2000E-09  2.1000E-09  1.2000E-09  5.0000E-09   0.000       0.000       0.000       0.000       0.000    
   9   5.0000E-10  5.2000E-09  2.1000E-09  1.2000E-09  5.0000E-09   0.000       0.000       0.000       0.000       0.000    
  10   5.0000E-10  5.2000E-09  2.1000E-09  1.2000E-09  5.8000E-09   0.000       0.000       0.000       0.000       0.000    
  11   1.0000E-10  1.1000E-09  1.1000E-09  1.2000E-09  5.0000E-09   0.000       0.000       0.000       0.000       0.000    
  12   1.1000E-09  1.1000E-09  1.1000E-09  1.1000E-09  2.0000E-09   0.000       0.000       0.000       0.000       0.000    
  13   1.1000E-09  2.2000E-09  2.2000E-09  2.1000E-09  1.0000E-09   0.000       0.000       0.000       0.000       0.000    
  14   2.0000E-10  5.5000E-09  5.5000E-09  5.2000E-09  1.0000E-09   0.000       0.000       0.000       0.000       0.000    
  15    0.000      8.8000E-09  8.8000E-09   0.000       0.000       0.000       0.000       0.000       0.000       0.000    

                  ET RATE =  7.500000E-08

 USING ET EXTINCTION DEPTH FROM PREVIOUS STRESS PERIOD. CURRENT PERIOD IS:      46

 USING EXTINCTION WATER CONTENT FROM PREVIOUS STRESS PERIOD. CURRENT PERIOD IS:      46

 USING AIR ENTRY PRESSURE FROM PREVIOUS STRESS PERIOD. CURRENT PERIOD IS:      46

 USING ROOT PRESSURE HEAD FROM PREVIOUS STRESS PERIOD. CURRENT PERIOD IS:      46

 USING ROOT ACTIVITY FROM PREVIOUS STRESS PERIOD. CURRENT PERIOD IS:      46

 PROCESSING AG STRESS PERIOD DATA

 READING AG STRESS PERIOD DATA

 READING IRRIGATION SEGMENT

 READING IRRIGATION WELL

 READING SUPPLEMENTAL WELL

 END PROCESSING AG STRESS PERIOD DATA OPTIONS
 
 SOLVING FOR HEAD 
                                                   Max.-Head-Change                         Max.-Flux-Residual
  Residual-Control   Outer-Iter.   Inner-Iter.     Column Row Layer    Maximum-Head-Change  Column Row Layer    Maximum-Flux-Residual          L2-NORM 
          0                 1           2             5    8     1       0.4765218404E-01       5    8    1         0.2589620904E+01      0.6395289841E+01
          0                 2           2             5    8     1      -0.4635318095E-02       5    8    1        -0.2589598020E+00      0.7401579972E+00
          0                 3           2             4   13     1      -0.4794224126E-03       4   13    1        -0.2822456865E-01      0.6706267832E-01
          0                 4           2             4   13     1      -0.3222847504E-03       4   13    1        -0.1897757471E-01      0.3307736775E-01
          0                 5           2             4   13     1      -0.1262061817E-03       4   13    1        -0.7430723204E-02      0.1298076863E-01
          0                 6           2             4   13     1      -0.1817064301E-03       4   13    1        -0.1069793977E-01      0.1862484288E-01
          0                 7           1             7   13     1      -0.2945720310E-04       7   13    1        -0.1735807971E-02      0.2185497723E-02

    ------------------------------------------------
       NWT REQUIRED            7 OUTER ITERATIONS 
       AND A TOTAL OF         13 INNER ITERATIONS.
    ------------------------------------------------

 NO OUTPUT CONTROL FOR STRESS PERIOD   46   TIME STEP    1
 
 SOLVING FOR HEAD 
                                                   Max.-Head-Change                         Max.-Flux-Residual
  Residual-Control   Outer-Iter.   Inner-Iter.     Column Row Layer    Maximum-Head-Change  Column Row Layer    Maximum-Flux-Residual          L2-NORM 
          0                 1           2             5    6     1       0.4561533151E-01       5    8    1         0.2476305333E+01      0.6186656442E+01
          0                 2           2             5    6     1      -0.4437096451E-02       5    8    1        -0.2476284248E+00      0.7204471423E+00
          0                 3           2             4   13     1      -0.4902301228E-03       4   13    1        -0.2886203308E-01      0.6690947152E-01
          0                 4           2             4   13     1      -0.3221232222E-03       4   13    1        -0.1896790551E-01      0.3306965927E-01
          0                 5           2             4   13     1      -0.1230163350E-03       4   13    1        -0.7242883325E-02      0.1265637962E-01
          0                 6           2             4   13     1      -0.1794040115E-03       4   13    1        -0.1056236682E-01      0.1839728229E-01
          0                 7           1             7   13     1      -0.3401105827E-04       7   13    1        -0.2003804685E-02      0.2402464795E-02

    ------------------------------------------------
       NWT REQUIRED            7 OUTER ITERATIONS 
       AND A TOTAL OF         13 INNER ITERATIONS.
    ------------------------------------------------

 NO OUTPUT CONTROL FOR STRESS PERIOD   46   TIME STEP    2
 
 SOLVING FOR HEAD 
                                                   Max.-Head-Change                         Max.-Flux-Residual
  Residual-Control   Outer-Iter.   Inner-Iter.     Column Row Layer    Maximum-Head-Change  Column Row Layer    Maximum-Flux-Residual          L2-NORM 
          0                 1           2             5    6     1       0.4379707639E-01       5    6    1         0.2370725743E+01      0.5968358576E+01
          0                 2           2             5    6     1      -0.4260231710E-02       5    6    1        -0.2370705305E+00      0.6849179124E+00
          0                 3           2             7   13     1      -0.6568939985E-03       7   13    1        -0.3650310445E-01      0.7538006701E-01
          0                 4           2             4   13     1      -0.3166141099E-03       4   13    1        -0.1862455006E-01      0.3293950136E-01
          0                 5           1             4   13     1      -0.1178030885E-03       4   13    1        -0.6928932018E-02      0.1244107456E-01
          0                 6           2             4   13     1      -0.1741830634E-03       4   13    1        -0.1024459454E-01      0.1831022496E-01
          0                 7           1             4   13     1       0.1169619075E-04       4   13    1         0.7073137476E-03      0.1240735237E-02

    ------------------------------------------------
       NWT REQUIRED            7 OUTER ITERATIONS 
       AND A TOTAL OF         12 INNER ITERATIONS.
    ------------------------------------------------

 NO OUTPUT CONTROL FOR STRESS PERIOD   46   TIME STEP    3
 
 SOLVING FOR HEAD 
                                                   Max.-Head-Change                         Max.-Flux-Residual
  Residual-Control   Outer-Iter.   Inner-Iter.     Column Row Layer    Maximum-Head-Change  Column Row Layer    Maximum-Flux-Residual          L2-NORM 
          0                 1           2             5    6     1       0.4208212916E-01       5    6    1         0.2276236365E+01      0.5781339762E+01
          0                 2           2             5    6     1      -0.4093416193E-02       5    6    1        -0.2276217360E+00      0.6642513969E+00
          0                 3           2             7   13     1      -0.9400797278E-03       7   13    1        -0.5227447850E-01      0.8361165781E-01
          0                 4           2             4   13     1      -0.3164429417E-03       4   13    1        -0.1860908078E-01      0.3283254462E-01
          0                 5           1             4   13     1      -0.1149599178E-03       4   13    1        -0.6759741750E-02      0.1219695514E-01
          0                 6           2             4   13     1      -0.1720691436E-03       4   13    1        -0.1011734960E-01      0.1815571222E-01
          0                 7           1             4   13     1       0.1155386942E-04       4   13    1         0.6985093987E-03      0.1232974326E-02

    ------------------------------------------------
       NWT REQUIRED            7 OUTER ITERATIONS 
       AND A TOTAL OF         12 INNER ITERATIONS.
    ------------------------------------------------

 NO OUTPUT CONTROL FOR STRESS PERIOD   46   TIME STEP    4
 
 SOLVING FOR HEAD 
                                                   Max.-Head-Change                         Max.-Flux-Residual
  Residual-Control   Outer-Iter.   Inner-Iter.     Column Row Layer    Maximum-Head-Change  Column Row Layer    Maximum-Flux-Residual          L2-NORM 
          0                 1           2             5    6     1       0.4046420148E-01       5    6    1         0.2187095115E+01      0.5607722950E+01
          0                 2           2             5    6     1      -0.3936038004E-02       5    6    1        -0.2187077527E+00      0.6490327191E+00
          0                 3           2             7   13     1      -0.9408144493E-03       7   13    1        -0.5231483764E-01      0.8328180590E-01
          0                 4           2             4   13     1      -0.3173295269E-03       4   13    1        -0.1866118862E-01      0.3292261472E-01
          0                 5           1             4   13     1      -0.1130274533E-03       4   13    1        -0.6646103465E-02      0.1200250526E-01
          0                 6           2             4   13     1      -0.1709037086E-03       4   13    1        -0.1004882718E-01      0.1802211156E-01
          0                 7           1             4   13     1       0.1147443595E-04       4   13    1         0.6937118287E-03      0.1224951995E-02

    ------------------------------------------------
       NWT REQUIRED            7 OUTER ITERATIONS 
       AND A TOTAL OF         12 INNER ITERATIONS.
    ------------------------------------------------

 NO OUTPUT CONTROL FOR STRESS PERIOD   46   TIME STEP    5
 
 SOLVING FOR HEAD 
                                                   Max.-Head-Change                         Max.-Flux-Residual
  Residual-Control   Outer-Iter.   Inner-Iter.     Column Row Layer    Maximum-Head-Change  Column Row Layer    Maximum-Flux-Residual          L2-NORM 
          0                 1           2             5    6     1       0.3893732123E-01       5    6    1         0.2103025467E+01      0.5443347531E+01
          0                 2           2             5    6     1      -0.3787516080E-02       5    6    1        -0.2103009180E+00      0.6347159757E+00
          0                 3           2             7   13     1      -0.9413520045E-03       7   13    1        -0.5234423458E-01      0.8298418929E-01
          0                 4           2             4   13     1      -0.3180444561E-03       4   13    1        -0.1870320708E-01      0.3299569488E-01
          0                 5           1             4   13     1      -0.1114414209E-03       4   13    1        -0.6552838856E-02      0.1183125718E-01
          0                 6           2             4   13     1      -0.1699247824E-03       4   13    1        -0.9991262493E-02      0.1792164391E-01
          0                 7           1             4   13     1       0.1140321500E-04       4   13    1         0.6894020380E-03      0.1214243807E-02

    ------------------------------------------------
       NWT REQUIRED            7 OUTER ITERATIONS 
       AND A TOTAL OF         12 INNER ITERATIONS.
    ------------------------------------------------

 NO OUTPUT CONTROL FOR STRESS PERIOD   46   TIME STEP    6
 
 SOLVING FOR HEAD 
                                                   Max.-Head-Change                         Max.-Flux-Residual
  Residual-Control   Outer-Iter.   Inner-Iter.     Column Row Layer    Maximum-Head-Change  Column Row Layer    Maximum-Flux-Residual          L2-NORM 
          0                 1           2             5    7     1       0.3749617908E-01       5    6    1         0.2023643524E+01      0.5287517383E+01
          0                 2           2             5    7     1      -0.3647346443E-02       5    6    1        -0.2023628432E+00      0.6214035269E+00
          0                 3           2             7   13     1      -0.9416587834E-03       7   13    1        -0.5236134864E-01      0.8250564983E-01
          0                 4           2             4   13     1      -0.3186335464E-03       4   13    1        -0.1873784223E-01      0.3305506140E-01
          0                 5           1             4   13     1      -0.1101825093E-03       4   13    1        -0.6478795924E-02      0.1169990812E-01
          0                 6           2             4   13     1      -0.1690770513E-03       4   13    1        -0.9941415348E-02      0.1783169714E-01
          0                 7           1             4   13     1       0.1133993283E-04       4   13    1         0.6855674319E-03      0.1208213546E-02

    ------------------------------------------------
       NWT REQUIRED            7 OUTER ITERATIONS 
       AND A TOTAL OF         12 INNER ITERATIONS.
    ------------------------------------------------

 NO OUTPUT CONTROL FOR STRESS PERIOD   46   TIME STEP    7
 
 SOLVING FOR HEAD 
                                                   Max.-Head-Change                         Max.-Flux-Residual
  Residual-Control   Outer-Iter.   Inner-Iter.     Column Row Layer    Maximum-Head-Change  Column Row Layer    Maximum-Flux-Residual          L2-NORM 
          0                 1           2             5    7     1       0.3671663273E-01       5    7    1         0.1948751833E+01      0.5139659973E+01
          0                 2           2             5    7     1      -0.3571520125E-02       5    7    1        -0.1948745625E+00      0.6087587441E+00
          0                 3           2             7   13     1      -0.9418299394E-03       7   13    1        -0.5237058438E-01      0.8218253701E-01
          0                 4           2             4   13     1      -0.3190583949E-03       4   13    1        -0.1876279227E-01      0.3309649389E-01
          0                 5           1             4   13     1      -0.1092224183E-03       4   13    1        -0.6422344271E-02      0.1159760376E-01
          0                 6           2             4   13     1      -0.1684282100E-03       4   13    1        -0.9903267186E-02      0.1776212968E-01
          0                 7           1             4   13     1       0.1132655355E-04       4   13    1         0.6847715740E-03      0.1205049867E-02

    ------------------------------------------------
       NWT REQUIRED            7 OUTER ITERATIONS 
       AND A TOTAL OF         12 INNER ITERATIONS.
    ------------------------------------------------

 NO OUTPUT CONTROL FOR STRESS PERIOD   46   TIME STEP    8
 
 SOLVING FOR HEAD 
                                                   Max.-Head-Change                         Max.-Flux-Residual
  Residual-Control   Outer-Iter.   Inner-Iter.     Column Row Layer    Maximum-Head-Change  Column Row Layer    Maximum-Flux-Residual          L2-NORM 
          0                 1           2             5    7     1       0.3595188979E-01       5    7    1         0.1908226100E+01      0.4999184183E+01
          0                 2           2             5    7     1      -0.3497133482E-02       5    7    1        -0.1908221250E+00      0.5962920243E+00
          0                 3           2             7   13     1      -0.9420154151E-03       7   13    1        -0.5237894999E-01      0.8251720348E-01
          0                 4           2             4   13     1      -0.3193585740E-03       4   13    1        -0.1878043263E-01      0.3312877178E-01
          0                 5           1             4   13     1      -0.1084158724E-03       4   13    1        -0.6374917552E-02      0.1151195178E-01
          0                 6           2             4   13     1      -0.1680228505E-03       4   13    1        -0.9879425553E-02      0.1771967554E-01
          0                 7           1             4   13     1       0.1127526383E-04       4   13    1         0.6816634659E-03      0.1201051056E-02

    ------------------------------------------------
       NWT REQUIRED            7 OUTER ITERATIONS 
       AND A TOTAL OF         12 INNER ITERATIONS.
    ------------------------------------------------

 NO OUTPUT CONTROL FOR STRESS PERIOD   46   TIME STEP    9
 
 SOLVING FOR HEAD 
                                                   Max.-Head-Change                         Max.-Flux-Residual
  Residual-Control   Outer-Iter.   Inner-Iter.     Column Row Layer    Maximum-Head-Change  Column Row Layer    Maximum-Flux-Residual          L2-NORM 
          0                 1           2             5    7     1       0.3520284210E-01       5    7    1         0.1868492601E+01      0.4865598735E+01
          0                 2           2             5    7     1      -0.3424273323E-02       4   13    1        -0.1895287534E+00      0.5852918707E+00
          0                 3           2             7   13     1      -0.9418044687E-03       7   13    1        -0.5236776634E-01      0.8191537182E-01
          0                 4           2             4   13     1      -0.3195966867E-03       4   13    1        -0.1879442807E-01      0.3315008223E-01
          0                 5           1             4   13     1      -0.1079773930E-03       4   13    1        -0.6349132783E-02      0.1146495760E-01
          0                 6           2             4   13     1      -0.1676299767E-03       4   13    1        -0.9856327603E-02      0.1767759587E-01
          0                 7           1             4   13     1       0.1125424303E-04       4   13    1         0.6803926626E-03      0.1198541897E-02

    ------------------------------------------------
       NWT REQUIRED            7 OUTER ITERATIONS 
       AND A TOTAL OF         12 INNER ITERATIONS.
    ------------------------------------------------

 NO OUTPUT CONTROL FOR STRESS PERIOD   46   TIME STEP   10
 
 SOLVING FOR HEAD 
                                                   Max.-Head-Change                         Max.-Flux-Residual
  Residual-Control   Outer-Iter.   Inner-Iter.     Column Row Layer    Maximum-Head-Change  Column Row Layer    Maximum-Flux-Residual          L2-NORM 
          0                 1           2             4    7     1       0.3470881937E-01       5    7    1         0.1829556423E+01      0.4738438256E+01
          0                 2           2             4    7     1      -0.3376222200E-02       4   13    1        -0.1894153504E+00      0.5746586919E+00
          0                 3           2             7   13     1      -0.9415385621E-03       7   13    1        -0.5235274522E-01      0.8163139927E-01
          0                 4           2             4   13     1      -0.3196825698E-03       4   13    1        -0.1879946920E-01      0.3315742723E-01
          0                 5           1             4   13     1      -0.1077389901E-03       4   13    1        -0.6335081063E-02      0.1144101155E-01
          0                 6           2             4   13     1      -0.1674375567E-03       4   13    1        -0.9845048825E-02      0.1765476709E-01
          0                 7           1             4   13     1       0.1124390641E-04       4   13    1         0.6797744145E-03      0.1196815231E-02

    ------------------------------------------------
       NWT REQUIRED            7 OUTER ITERATIONS 
       AND A TOTAL OF         12 INNER ITERATIONS.
    ------------------------------------------------

 NO OUTPUT CONTROL FOR STRESS PERIOD   46   TIME STEP   11
 
 SOLVING FOR HEAD 
                                                   Max.-Head-Change                         Max.-Flux-Residual
  Residual-Control   Outer-Iter.   Inner-Iter.     Column Row Layer    Maximum-Head-Change  Column Row Layer    Maximum-Flux-Residual          L2-NORM 
          0                 1           2             4    7     1       0.3443421048E-01       4    7    1         0.1803428394E+01      0.4617252708E+01
          0                 2           2             4    7     1      -0.3349511872E-02       4   13    1        -0.1893076978E+00      0.5646067304E+00
          0                 3           2             7   13     1      -0.9411455371E-03       7   13    1        -0.5233068516E-01      0.8135120467E-01
          0                 4           2             4   13     1      -0.3196857323E-03       4   13    1        -0.1879965738E-01      0.3315548308E-01
          0                 5           1             4   13     1      -0.1077103642E-03       4   13    1        -0.6333426789E-02      0.1143630357E-01
          0                 6           2             4   13     1      -0.1673677960E-03       4   13    1        -0.9840904169E-02      0.1764852905E-01
          0                 7           1             4   13     1       0.1123378494E-04       4   13    1         0.6791453970E-03      0.1196685587E-02

    ------------------------------------------------
       NWT REQUIRED            7 OUTER ITERATIONS 
       AND A TOTAL OF         12 INNER ITERATIONS.
    ------------------------------------------------

 NO OUTPUT CONTROL FOR STRESS PERIOD   46   TIME STEP   12
 
 SOLVING FOR HEAD 
                                                   Max.-Head-Change                         Max.-Flux-Residual
  Residual-Control   Outer-Iter.   Inner-Iter.     Column Row Layer    Maximum-Head-Change  Column Row Layer    Maximum-Flux-Residual          L2-NORM 
          0                 1           2             4    7     1       0.3414323023E-01       4    7    1         0.1789160903E+01      0.4501663261E+01
          0                 2           2             4    7     1      -0.3321208880E-02       4   13    1        -0.1892067149E+00      0.5550983924E+00
          0                 3           2             7   13     1      -0.9406328666E-03       7   13    1        -0.5230199934E-01      0.8107485993E-01
          0                 4           2             4   13     1      -0.3195818057E-03       4   13    1        -0.1879355329E-01      0.3314224839E-01
          0                 5           1             4   13     1      -0.1078796355E-03       4   13    1        -0.6343380051E-02      0.1145384702E-01
          0                 6           2             4   13     1      -0.1674364965E-03       4   13    1        -0.9844945380E-02      0.1765520988E-01
          0                 7           1             4   13     1       0.1125109812E-04       4   13    1         0.6802008729E-03      0.1198256532E-02

    ------------------------------------------------
       NWT REQUIRED            7 OUTER ITERATIONS 
       AND A TOTAL OF         12 INNER ITERATIONS.
    ------------------------------------------------

 NO OUTPUT CONTROL FOR STRESS PERIOD   46   TIME STEP   13
 
 SOLVING FOR HEAD 
                                                   Max.-Head-Change                         Max.-Flux-Residual
  Residual-Control   Outer-Iter.   Inner-Iter.     Column Row Layer    Maximum-Head-Change  Column Row Layer    Maximum-Flux-Residual          L2-NORM 
          0                 1           2             4    7     1       0.3383758959E-01       4    7    1         0.1774044572E+01      0.4391307632E+01
          0                 2           2             4    7     1      -0.3291479668E-02       4   13    1        -0.1891110336E+00      0.5460952764E+00
          0                 3           2             7   13     1      -0.9400065010E-03       7   13    1        -0.5226701485E-01      0.8080036823E-01
          0                 4           2             4   13     1      -0.3193921212E-03       4   13    1        -0.1878239826E-01      0.3312021332E-01
          0                 5           1             4   13     1      -0.1082412935E-03       4   13    1        -0.6364640507E-02      0.1149122550E-01
          0                 6           2             4   13     1      -0.1676056820E-03       4   13    1        -0.9854895367E-02      0.1767313945E-01
          0                 7           1             4   13     1       0.1124905330E-04       4   13    1         0.6800828050E-03      0.1197903842E-02

    ------------------------------------------------
       NWT REQUIRED            7 OUTER ITERATIONS 
       AND A TOTAL OF         12 INNER ITERATIONS.
    ------------------------------------------------

 NO OUTPUT CONTROL FOR STRESS PERIOD   46   TIME STEP   14
 
 SOLVING FOR HEAD 
                                                   Max.-Head-Change                         Max.-Flux-Residual
  Residual-Control   Outer-Iter.   Inner-Iter.     Column Row Layer    Maximum-Head-Change  Column Row Layer    Maximum-Flux-Residual          L2-NORM 
          0                 1           2             4    7     1       0.3351874495E-01       4    7    1         0.1758160759E+01      0.4285833986E+01
          0                 2           2             4    7     1      -0.3260465916E-02       4   13    1        -0.1890223882E+00      0.5375652614E+00
          0                 3           2             7   13     1      -0.9392742925E-03       7   13    1        -0.5222616849E-01      0.8052695699E-01
          0                 4           2             4   13     1      -0.3190952702E-03       4   13    1        -0.1876494013E-01      0.3308960732E-01
          0                 5           1             4   13     1      -0.1087983791E-03       4   13    1        -0.6397400877E-02      0.1154871557E-01
          0                 6           2             4   13     1      -0.1679014633E-03       4   13    1        -0.9872281687E-02      0.1770338199E-01
          0                 7           1             4   13     1       0.1126872217E-04       4   13    1         0.6812655038E-03      0.1200505370E-02

    ------------------------------------------------
       NWT REQUIRED            7 OUTER ITERATIONS 
       AND A TOTAL OF         12 INNER ITERATIONS.
    ------------------------------------------------

 NO OUTPUT CONTROL FOR STRESS PERIOD   46   TIME STEP   15
 
 SOLVING FOR HEAD 
                                                   Max.-Head-Change                         Max.-Flux-Residual
  Residual-Control   Outer-Iter.   Inner-Iter.     Column Row Layer    Maximum-Head-Change  Column Row Layer    Maximum-Flux-Residual          L2-NORM 
          0                 1           2             4    7     1       0.3318819061E-01       4    7    1         0.1741592328E+01      0.4184929956E+01
          0                 2           2             4    7     1      -0.3228312993E-02       4   13    1        -0.1889385494E+00      0.5294729303E+00
          0                 3           2             7   13     1      -0.9384394553E-03       7   13    1        -0.5217964146E-01      0.8025341949E-01
          0                 4           2             4   13     1      -0.3187174006E-03       4   13    1        -0.1874272738E-01      0.3304770330E-01
          0                 5           1             4   13     1      -0.1095373283E-03       4   13    1        -0.6440855685E-02      0.1162706371E-01
          0                 6           2             4   13     1      -0.1683059249E-03       4   13    1        -0.9896064874E-02      0.1774428751E-01
          0                 7           1             4   13     1       0.1129982244E-04       4   13    1         0.6831470264E-03      0.1203129060E-02

    ------------------------------------------------
       NWT REQUIRED            7 OUTER ITERATIONS 
       AND A TOTAL OF         12 INNER ITERATIONS.
    ------------------------------------------------

 NO OUTPUT CONTROL FOR STRESS PERIOD   46   TIME STEP   16
 
 SOLVING FOR HEAD 
                                                   Max.-Head-Change                         Max.-Flux-Residual
  Residual-Control   Outer-Iter.   Inner-Iter.     Column Row Layer    Maximum-Head-Change  Column Row Layer    Maximum-Flux-Residual          L2-NORM 
          0                 1           2             4    7     1       0.3284732017E-01       4    7    1         0.1724416757E+01      0.4088317366E+01
          0                 2           2             4   13     1      -0.3208737400E-02       4   13    1        -0.1888595547E+00      0.5213345220E+00
          0                 3           2             7   13     1      -0.9375009679E-03       7   13    1        -0.5212737278E-01      0.7996569515E-01
          0                 4           2             4   13     1      -0.3183078015E-03       4   13    1        -0.1871866101E-01      0.3299623192E-01
          0                 5           1             4   13     1      -0.1104275068E-03       4   13    1        -0.6493211193E-02      0.1172027706E-01
          0                 6           2             4   13     1      -0.1688041954E-03       4   13    1        -0.9925351984E-02      0.1779705315E-01
          0                 7           1             4   13     1       0.1133550794E-04       4   13    1         0.6853085852E-03      0.1206759986E-02

    ------------------------------------------------
       NWT REQUIRED            7 OUTER ITERATIONS 
       AND A TOTAL OF         12 INNER ITERATIONS.
    ------------------------------------------------

 NO OUTPUT CONTROL FOR STRESS PERIOD   46   TIME STEP   17
 
 SOLVING FOR HEAD 
                                                   Max.-Head-Change                         Max.-Flux-Residual
  Residual-Control   Outer-Iter.   Inner-Iter.     Column Row Layer    Maximum-Head-Change  Column Row Layer    Maximum-Flux-Residual          L2-NORM 
          0                 1           2             4    7     1       0.3249761076E-01       4    7    1         0.1706714223E+01      0.3996235256E+01
          0                 2           2             4   13     1      -0.3207436149E-02       4   13    1        -0.1887838050E+00      0.5145373899E+00
          0                 3           2             7   13     1      -0.9364649418E-03       7   13    1        -0.5206969961E-01      0.7970080025E-01
          0                 4           2             4   13     1      -0.3177782656E-03       4   13    1        -0.1868749586E-01      0.3294848223E-01
          0                 5           1             4   13     1      -0.1115113843E-03       4   13    1        -0.6556972846E-02      0.1183113972E-01
          0                 6           2             4   13     1      -0.1693824499E-03       4   13    1        -0.9959353359E-02      0.1785795838E-01
          0                 7           1             4   13     1       0.1137965176E-04       4   13    1         0.6879740349E-03      0.1211332946E-02

    ------------------------------------------------
       NWT REQUIRED            7 OUTER ITERATIONS 
       AND A TOTAL OF         12 INNER ITERATIONS.
    ------------------------------------------------

 NO OUTPUT CONTROL FOR STRESS PERIOD   46   TIME STEP   18
 
 SOLVING FOR HEAD 
                                                   Max.-Head-Change                         Max.-Flux-Residual
  Residual-Control   Outer-Iter.   Inner-Iter.     Column Row Layer    Maximum-Head-Change  Column Row Layer    Maximum-Flux-Residual          L2-NORM 
          0                 1           2             4    7     1       0.3213997011E-01       4    7    1         0.1688537551E+01      0.3907979763E+01
          0                 2           2             4   13     1      -0.3206208403E-02       4   13    1        -0.1887123863E+00      0.5076434730E+00
          0                 3           2             7   13     1      -0.9353650232E-03       7   13    1        -0.5200849443E-01      0.7942554196E-01
          0                 4           2             4   13     1      -0.3171842282E-03       4   13    1        -0.1865260678E-01      0.3288122288E-01
          0                 5           1             4   13     1      -0.1127426137E-03       4   13    1        -0.6629347484E-02      0.1196169415E-01
          0                 6           2             4   13     1      -0.1700487353E-03       4   13    1        -0.9998531371E-02      0.1792759234E-01
          0                 7           1             4   13     1       0.1141631239E-04       4   13    1         0.6901922061E-03      0.1214986293E-02

    ------------------------------------------------
       NWT REQUIRED            7 OUTER ITERATIONS 
       AND A TOTAL OF         12 INNER ITERATIONS.
    ------------------------------------------------

 NO OUTPUT CONTROL FOR STRESS PERIOD   46   TIME STEP   19
 
 SOLVING FOR HEAD 
                                                   Max.-Head-Change                         Max.-Flux-Residual
  Residual-Control   Outer-Iter.   Inner-Iter.     Column Row Layer    Maximum-Head-Change  Column Row Layer    Maximum-Flux-Residual          L2-NORM 
          0                 1           2             4    7     1       0.3177554352E-01       4    7    1         0.1669950214E+01      0.3823219266E+01
          0                 2           2             4   13     1      -0.3198937716E-02       4   13    1        -0.1882858986E+00      0.5006730878E+00
          0                 3           2             7   13     1      -0.9342979083E-03       7   13    1        -0.5194806804E-01      0.7958015203E-01
          0                 4           2             4   13     1      -0.3164463917E-03       4   13    1        -0.1860922385E-01      0.3280370201E-01
          0                 5           1             4   13     1      -0.1140727368E-03       4   13    1        -0.6707559431E-02      0.1210265691E-01
          0                 6           2             4   13     1      -0.1708937687E-03       4   13    1        -0.1004652055E-01      0.1809397023E-01
          0                 7           1             3   13     1       0.1290760781E-04       3   13    1         0.7718695142E-03      0.1317749841E-02

    ------------------------------------------------
       NWT REQUIRED            7 OUTER ITERATIONS 
       AND A TOTAL OF         12 INNER ITERATIONS.
    ------------------------------------------------

 NO OUTPUT CONTROL FOR STRESS PERIOD   46   TIME STEP   20
 
 SOLVING FOR HEAD 
                                                   Max.-Head-Change                         Max.-Flux-Residual
  Residual-Control   Outer-Iter.   Inner-Iter.     Column Row Layer    Maximum-Head-Change  Column Row Layer    Maximum-Flux-Residual          L2-NORM 
          0                 1           2             4    7     1       0.3140565014E-01       4    7    1         0.1651025738E+01      0.3741747353E+01
          0                 2           2             4    7     1      -0.3054923731E-02       4   13    1        -0.1657639894E+00      0.4696485122E+00
          0                 3           2             4   13     1      -0.1078615022E-02       4   13    1        -0.6342823056E-01      0.1272456107E+00
          0                 4           1             4   13     1      -0.1170022614E-03       4   13    1        -0.6879979891E-02      0.1217659604E-01
          0                 5           2             4   13     1      -0.1874500590E-03       4   13    1        -0.1102241453E-01      0.1977933756E-01
          0                 6           1             4   13     1      -0.1190345261E-03       4   13    1        -0.6998883392E-02      0.1256739517E-01
          0                 7           1             4   13     1       0.7989896846E-05       4   13    1         0.4830354510E-03      0.8514787372E-03

    ------------------------------------------------
       NWT REQUIRED            7 OUTER ITERATIONS 
       AND A TOTAL OF         11 INNER ITERATIONS.
    ------------------------------------------------

 NO OUTPUT CONTROL FOR STRESS PERIOD   46   TIME STEP   21
 
 SOLVING FOR HEAD 
                                                   Max.-Head-Change                         Max.-Flux-Residual
  Residual-Control   Outer-Iter.   Inner-Iter.     Column Row Layer    Maximum-Head-Change  Column Row Layer    Maximum-Flux-Residual          L2-NORM 
          0                 1           2             4    7     1       0.3103098819E-01       4    7    1         0.1631803098E+01      0.3663398758E+01
          0                 2           2             4    7     1      -0.3018479876E-02       4   13    1        -0.1654947729E+00      0.4631591678E+00
          0                 3           2             4   13     1      -0.1078269341E-02       4   13    1        -0.6340799395E-01      0.1270308075E+00
          0                 4           1             4   13     1      -0.1200356682E-03       4   13    1        -0.7058374335E-02      0.1248727244E-01
          0                 5           2             4   13     1      -0.1877786005E-03       4   13    1        -0.1104173619E-01      0.1981371426E-01
          0                 6           1             4   13     1      -0.1206485168E-03       4   13    1        -0.7093788003E-02      0.1273605663E-01
          0                 7           1             4   13     1       0.8103884717E-05       4   13    1         0.4899301402E-03      0.8628459043E-03

    ------------------------------------------------
       NWT REQUIRED            7 OUTER ITERATIONS 
       AND A TOTAL OF         11 INNER ITERATIONS.
    ------------------------------------------------

 NO OUTPUT CONTROL FOR STRESS PERIOD   46   TIME STEP   22
 
 SOLVING FOR HEAD 
                                                   Max.-Head-Change                         Max.-Flux-Residual
  Residual-Control   Outer-Iter.   Inner-Iter.     Column Row Layer    Maximum-Head-Change  Column Row Layer    Maximum-Flux-Residual          L2-NORM 
          0                 1           2             4    7     1       0.3065245481E-01       4    7    1         0.1612333199E+01      0.3587966532E+01
          0                 2           2             4    7     1      -0.2981659441E-02       4   13    1        -0.1652140202E+00      0.4569140608E+00
          0                 3           2             4   13     1      -0.1078105754E-02       4   13    1        -0.6339842916E-01      0.1268410580E+00
          0                 4           2             4   13     1      -0.1228968719E-03       4   13    1        -0.7226646322E-02      0.1278130043E-01
          0                 5           2             4   13     1      -0.1885385707E-03       4   13    1        -0.1108644050E-01      0.1989240941E-01
          0                 6           2             4   13     1      -0.1219925876E-03       4   13    1        -0.7172800890E-02      0.1287844573E-01
          0                 7           1             4   13     1       0.8190593557E-05       4   13    1         0.4951724113E-03      0.8727879664E-03

    ------------------------------------------------
       NWT REQUIRED            7 OUTER ITERATIONS 
       AND A TOTAL OF         13 INNER ITERATIONS.
    ------------------------------------------------

 NO OUTPUT CONTROL FOR STRESS PERIOD   46   TIME STEP   23
 
 SOLVING FOR HEAD 
                                                   Max.-Head-Change                         Max.-Flux-Residual
  Residual-Control   Outer-Iter.   Inner-Iter.     Column Row Layer    Maximum-Head-Change  Column Row Layer    Maximum-Flux-Residual          L2-NORM 
          0                 1           2             4    7     1       0.3027087929E-01       4    7    1         0.1592662560E+01      0.3515307105E+01
          0                 2           2             4    7     1      -0.2944542790E-02       4   13    1        -0.1649212191E+00      0.4509195695E+00
          0                 3           2             4   13     1      -0.1078259327E-02       4   13    1        -0.6340754473E-01      0.1266841689E+00
          0                 4           2             4   13     1      -0.1255285531E-03       4   13    1        -0.7381420873E-02      0.1305111423E-01
          0                 5           2             4   13     1      -0.1897409375E-03       4   13    1        -0.1115711968E-01      0.2002007249E-01
          0                 6           2             4   13     1      -0.1230530359E-03       4   13    1        -0.7235167881E-02      0.1298938364E-01
          0                 7           1             4   13     1       0.8256540762E-05       4   13    1         0.4991533051E-03      0.8803289904E-03

    ------------------------------------------------
       NWT REQUIRED            7 OUTER ITERATIONS 
       AND A TOTAL OF         13 INNER ITERATIONS.
    ------------------------------------------------

 NO OUTPUT CONTROL FOR STRESS PERIOD   46   TIME STEP   24
 
 SOLVING FOR HEAD 
                                                   Max.-Head-Change                         Max.-Flux-Residual
  Residual-Control   Outer-Iter.   Inner-Iter.     Column Row Layer    Maximum-Head-Change  Column Row Layer    Maximum-Flux-Residual          L2-NORM 
          0                 1           2             4    7     1       0.2988716645E-01       4    7    1         0.1572841554E+01      0.3445263163E+01
          0                 2           2             4    7     1      -0.2907218179E-02       4   13    1        -0.1646208294E+00      0.4451566682E+00
          0                 3           2             4   13     1      -0.1078568240E-02       4   13    1        -0.6342584197E-01      0.1265466766E+00
          0                 4           2             4   13     1      -0.1280109541E-03       4   13    1        -0.7527404555E-02      0.1330750319E-01
          0                 5           2             4   13     1      -0.1913104131E-03       4   13    1        -0.1124942194E-01      0.2018334837E-01
          0                 6           2             4   13     1      -0.1239264513E-03       4   13    1        -0.7286509444E-02      0.1308166330E-01
          0                 7           1             4   13     1       0.8319286014E-05       4   13    1         0.5029466784E-03      0.8863072749E-03

    ------------------------------------------------
       NWT REQUIRED            7 OUTER ITERATIONS 
       AND A TOTAL OF         13 INNER ITERATIONS.
    ------------------------------------------------

 NO OUTPUT CONTROL FOR STRESS PERIOD   46   TIME STEP   25
 
 SOLVING FOR HEAD 
                                                   Max.-Head-Change                         Max.-Flux-Residual
  Residual-Control   Outer-Iter.   Inner-Iter.     Column Row Layer    Maximum-Head-Change  Column Row Layer    Maximum-Flux-Residual          L2-NORM 
          0                 1           2             4    7     1       0.2950187823E-01       4    7    1         0.1552902367E+01      0.3377697109E+01
          0                 2           2             4    7     1      -0.2869740276E-02       4   13    1        -0.1643063917E+00      0.4396050788E+00
          0                 3           2             4   13     1      -0.1079112363E-02       4   13    1        -0.6345787201E-01      0.1264349137E+00
          0                 4           2             4   13     1      -0.1302858617E-03       4   13    1        -0.7661203425E-02      0.1354158778E-01
          0                 5           2             4   13     1      -0.1932638574E-03       4   13    1        -0.1136428693E-01      0.2038853846E-01
          0                 6           2             4   13     1      -0.1245721670E-03       4   13    1        -0.7324473606E-02      0.1314891154E-01
          0                 7           1             4   13     1       0.8360873188E-05       4   13    1         0.5054578123E-03      0.8908804275E-03

    ------------------------------------------------
       NWT REQUIRED            7 OUTER ITERATIONS 
       AND A TOTAL OF         13 INNER ITERATIONS.
    ------------------------------------------------

 NO OUTPUT CONTROL FOR STRESS PERIOD   46   TIME STEP   26
 
 SOLVING FOR HEAD 
                                                   Max.-Head-Change                         Max.-Flux-Residual
  Residual-Control   Outer-Iter.   Inner-Iter.     Column Row Layer    Maximum-Head-Change  Column Row Layer    Maximum-Flux-Residual          L2-NORM 
          0                 1           2             4    7     1       0.2911580026E-01       4    7    1         0.1532888850E+01      0.3312482700E+01
          0                 2           2             4    7     1      -0.2832185507E-02       4   13    1        -0.1639860334E+00      0.4342609185E+00
          0                 3           2             4   13     1      -0.1079786860E-02       4   13    1        -0.6349762280E-01      0.1263395852E+00
          0                 4           2             4   13     1      -0.1324382319E-03       4   13    1        -0.7787787478E-02      0.1376418470E-01
          0                 5           2             4   13     1      -0.1955541552E-03       4   13    1        -0.1149896607E-01      0.2062803880E-01
          0                 6           2             4   13     1      -0.1250302208E-03       4   13    1        -0.7351405927E-02      0.1319743013E-01
          0                 7           1             4   13     1       0.8399245154E-05       4   13    1         0.5077843070E-03      0.8949404658E-03

    ------------------------------------------------
       NWT REQUIRED            7 OUTER ITERATIONS 
       AND A TOTAL OF         13 INNER ITERATIONS.
    ------------------------------------------------

 NO OUTPUT CONTROL FOR STRESS PERIOD   46   TIME STEP   27
 
 SOLVING FOR HEAD 
                                                   Max.-Head-Change                         Max.-Flux-Residual
  Residual-Control   Outer-Iter.   Inner-Iter.     Column Row Layer    Maximum-Head-Change  Column Row Layer    Maximum-Flux-Residual          L2-NORM 
          0                 1           2             4    7     1       0.2872925599E-01       4    7    1         0.1512819662E+01      0.3249490362E+01
          0                 2           2             4    7     1      -0.2794585339E-02       4   13    1        -0.1634474310E+00      0.4288702973E+00
          0                 3           2             4   13     1      -0.1086878719E-02       4   13    1        -0.6391473786E-01      0.1268561413E+00
          0                 4           2             4   13     1      -0.1307489860E-03       4   13    1        -0.7688459573E-02      0.1358898052E-01
          0                 5           2             4   13     1      -0.1996321326E-03       4   13    1        -0.1173875174E-01      0.2105628686E-01
          0                 6           2             4   13     1      -0.1227944055E-03       4   13    1        -0.7219978808E-02      0.1296061053E-01
          0                 7           1             4   13     1       0.8231929612E-05       4   13    1         0.4976821647E-03      0.8767258616E-03

    ------------------------------------------------
       NWT REQUIRED            7 OUTER ITERATIONS 
       AND A TOTAL OF         13 INNER ITERATIONS.
    ------------------------------------------------

 NO OUTPUT CONTROL FOR STRESS PERIOD   46   TIME STEP   28
 
 SOLVING FOR HEAD 
                                                   Max.-Head-Change                         Max.-Flux-Residual
  Residual-Control   Outer-Iter.   Inner-Iter.     Column Row Layer    Maximum-Head-Change  Column Row Layer    Maximum-Flux-Residual          L2-NORM 
          0                 1           2             4    7     1       0.2834306911E-01       4    7    1         0.1492741009E+01      0.3188619166E+01
          0                 2           2             4   13     1      -0.2774114454E-02       4   13    1        -0.1633260343E+00      0.4241481239E+00
          0                 3           2             4   13     1      -0.1073042118E-02       4   13    1        -0.6310133700E-01      0.1253433629E+00
          0                 4           2             4   13     1      -0.1424165941E-03       4   13    1        -0.8374634846E-02      0.1479637765E-01
          0                 5           2             4   13     1      -0.1848400890E-03       4   13    1        -0.1086901441E-01      0.1949949239E-01
          0                 6           2             4   13     1      -0.1336966074E-03       4   13    1        -0.7861035715E-02      0.1410561301E-01
          0                 7           1             4   13     1       0.8986206096E-05       4   13    1         0.5432716152E-03      0.9554458502E-03

    ------------------------------------------------
       NWT REQUIRED            7 OUTER ITERATIONS 
       AND A TOTAL OF         13 INNER ITERATIONS.
    ------------------------------------------------

 NO OUTPUT CONTROL FOR STRESS PERIOD   46   TIME STEP   29
 
 SOLVING FOR HEAD 
                                                   Max.-Head-Change                         Max.-Flux-Residual
  Residual-Control   Outer-Iter.   Inner-Iter.     Column Row Layer    Maximum-Head-Change  Column Row Layer    Maximum-Flux-Residual          L2-NORM 
          0                 1           2             4    7     1       0.2795759093E-01       4    7    1         0.1472673522E+01      0.3129729436E+01
          0                 2           2             4   13     1      -0.2770034044E-02       4   13    1        -0.1630868374E+00      0.4194706249E+00
          0                 3           2             4   13     1      -0.1083795673E-02       4   13    1        -0.6373357294E-01      0.1262876057E+00
          0                 4           2             4   13     1      -0.1399248436E-03       4   13    1        -0.8228077025E-02      0.1454103990E-01
          0                 5           2             4   13     1      -0.1851799416E-03       4   13    1        -0.1088898663E-01      0.1953435082E-01
          0                 6           2             4   13     1      -0.1315660782E-03       4   13    1        -0.7735749636E-02      0.1388100864E-01
          0                 7           1             4   13     1       0.8842532255E-05       4   13    1         0.5345819709E-03      0.9415186277E-03

    ------------------------------------------------
       NWT REQUIRED            7 OUTER ITERATIONS 
       AND A TOTAL OF         13 INNER ITERATIONS.
    ------------------------------------------------

 NO OUTPUT CONTROL FOR STRESS PERIOD   46   TIME STEP   30



 STREAM LISTING     PERIOD     46   STEP       30

 LAYER ROW COL. STREAM  RCH.  FLOW INTO     FLOW TO   FLOW OUT OF   OVRLND.     DIRECT     STREAM       STREAM     STREAM     STREAM   STREAMBED  STREAMBED
                SEG.NO.  NO.  STRM. RCH.    AQUIFER    STRM. RCH.    RUNOFF     PRECIP       ET          HEAD       DEPTH      WIDTH   CONDCTNC.   GRADIENT

   1    1    1     1     1    1.8749E+01  2.1264E-01   1.8537E+01  0.000E+00  0.000E+00  0.000E+00  1.09413E+03  1.078E+00  1.159E+01  5.215E-02  1.359E+00
   1    2    2     1     2    1.8537E+01  3.2801E-01   1.8209E+01  0.000E+00  0.000E+00  0.000E+00  1.08913E+03  1.073E+00  1.150E+01  8.053E-02  1.358E+00
   1    3    3     1     3    1.8209E+01  2.7848E-01   1.7930E+01  0.000E+00  0.000E+00  0.000E+00  1.08349E+03  1.068E+00  1.141E+01  6.845E-02  1.356E+00
   1    3    4     1     4    1.7930E+01  2.5541E-01   1.7675E+01  0.000E+00  0.000E+00  0.000E+00  1.07847E+03  1.064E+00  1.132E+01  6.285E-02  1.355E+00
   1    4    5     2     1    1.5675E+01  3.0476E-01   1.5370E+01  0.000E+00  0.000E+00  0.000E+00  1.07284E+03  9.072E-01  1.200E+01  7.800E-02  1.302E+00
   1    5    6     2     2    1.5370E+01  2.3387E-01   1.5136E+01  0.000E+00  0.000E+00  0.000E+00  1.06741E+03  8.978E-01  1.200E+01  6.000E-02  1.299E+00
   1    6    6     2     3    1.5136E+01  2.3337E-01   1.4903E+01  0.000E+00  0.000E+00  0.000E+00  1.06268E+03  8.895E-01  1.200E+01  6.000E-02  1.296E+00
   1    7    6     2     4    1.4903E+01  2.3287E-01   1.4670E+01  0.000E+00  0.000E+00  0.000E+00  1.05796E+03  8.812E-01  1.200E+01  6.000E-02  1.294E+00
   1    8    6     2     5    1.4670E+01  2.3237E-01   1.4438E+01  0.000E+00  0.000E+00  0.000E+00  1.05323E+03  8.728E-01  1.200E+01  6.000E-02  1.291E+00
   1    3    5     3     1    2.0000E+00  2.8252E-01   1.7175E+00  0.000E+00  0.000E+00  0.000E+00  1.07555E+03  1.909E+00  9.636E+00  7.227E-02  1.955E+00
   1    3    6     3     2    1.7175E+00  2.4905E-01   1.4684E+00  0.000E+00  0.000E+00  0.000E+00  1.07264E+03  1.727E+00  8.909E+00  6.682E-02  1.864E+00
   1    3    7     3     3    1.4684E+00  1.9718E-01   1.2712E+00  0.000E+00  0.000E+00  0.000E+00  1.06987E+03  1.555E+00  8.218E+00  5.547E-02  1.777E+00
   1    4    8     3     4    1.2712E+00  2.2567E-01   1.0456E+00  0.000E+00  0.000E+00  0.000E+00  1.06682E+03  1.364E+00  7.455E+00  6.709E-02  1.682E+00
   1    5    8     3     5    1.0456E+00  1.5790E-01   8.8768E-01  0.000E+00  0.000E+00  0.000E+00  1.06362E+03  1.164E+00  6.655E+00  4.991E-02  1.582E+00
   1    6    8     3     6    8.8768E-01  5.5980E-02   8.3170E-01  0.000E+00  0.000E+00  0.000E+00  1.06158E+03  1.036E+00  6.145E+00  1.844E-02  1.518E+00
   1    5   10     4     1    1.0000E+01  9.0919E-02   9.9091E+00  0.000E+00  0.000E+00  0.000E+00  1.07836E+03  6.368E-01  1.000E+01  2.500E-02  1.212E+00
   1    5    9     4     2    9.9091E+00  1.8158E-01   9.7275E+00  0.000E+00  0.000E+00  0.000E+00  1.07154E+03  6.315E-01  1.000E+01  5.000E-02  1.211E+00
   1    6    8     4     3    9.7275E+00  1.2689E-01   9.6006E+00  0.000E+00  0.000E+00  0.000E+00  1.06381E+03  6.256E-01  1.000E+01  3.500E-02  1.209E+00
   1    6    8     5     1    1.0432E+01  2.2686E-01   1.0205E+01  0.000E+00  0.000E+00  0.000E+00  1.05868E+03  6.790E-01  1.542E+01  6.166E-02  1.226E+00
   1    7    7     5     2    1.0205E+01  2.7894E-01   9.9265E+00  0.000E+00  0.000E+00  0.000E+00  1.05417E+03  6.732E-01  1.519E+01  7.594E-02  1.224E+00
   1    8    7     5     3    9.9265E+00  1.9221E-01   9.7343E+00  0.000E+00  0.000E+00  0.000E+00  1.04992E+03  6.676E-01  1.497E+01  5.241E-02  1.223E+00
   1    8    6     5     4    9.7343E+00  1.3577E-01   9.5985E+00  0.000E+00  0.000E+00  0.000E+00  1.04691E+03  6.637E-01  1.482E+01  3.706E-02  1.221E+00
   1    9    6     6     1    1.2973E+01  2.2916E-01   1.2744E+01  0.000E+00  0.000E+00  0.000E+00  1.04355E+03  8.194E-01  1.200E+01  6.000E-02  1.273E+00
   1   10    7     6     2    1.2744E+01  2.2864E-01   1.2516E+01  0.000E+00  0.000E+00  0.000E+00  1.03899E+03  8.106E-01  1.200E+01  6.000E-02  1.270E+00
   1   11    7     6     3    1.2516E+01  2.2811E-01   1.2287E+01  0.000E+00  0.000E+00  0.000E+00  1.03444E+03  8.018E-01  1.200E+01  6.000E-02  1.267E+00
   1   12    7     6     4    1.2287E+01  2.2757E-01   1.2060E+01  0.000E+00  0.000E+00  0.000E+00  1.02988E+03  7.929E-01  1.200E+01  6.000E-02  1.264E+00
   1   13    7     6     5    1.2060E+01 -7.3098E-02   1.2133E+01  0.000E+00  0.000E+00  0.000E+00  1.02670E+03  7.899E-01  1.200E+01  2.400E-01 -1.015E-01
   1   14    9     7     1    1.5000E+02  1.3443E+00   1.4866E+02  0.000E+00  0.000E+00  0.000E+00  1.03987E+03  2.288E+00  5.529E+01  5.593E-01  8.012E-01
   1   13    8     7     2    1.4866E+02  1.8539E+00   1.4680E+02  0.000E+00  0.000E+00  0.000E+00  1.03478E+03  2.279E+00  5.526E+01  6.148E-01  1.005E+00
   1   13    7     7     3    1.4680E+02  1.5000E+00   1.4530E+02  0.000E+00  0.000E+00  0.000E+00  1.02969E+03  2.270E+00  5.522E+01  5.584E-01  8.953E-01
   1   13    6     8     1    1.5743E+02  8.7444E-01   1.5656E+02  0.000E+00  0.000E+00  0.000E+00  1.02474E+03  2.865E+00  4.155E+01  4.234E-01  6.884E-01
   1   13    5     8     2    1.5656E+02  1.4108E-01   1.5642E+02  0.000E+00  0.000E+00  0.000E+00  1.01849E+03  2.862E+00  4.150E+01  4.229E-01  1.112E-01
   1   13    4     8     3    1.5642E+02 -2.5355E+00   1.5895E+02  0.000E+00  0.000E+00  0.000E+00  1.01225E+03  2.870E+00  4.162E+01  4.241E+00 -1.993E-01
   1   13    3     8     4    1.5895E+02 -3.6821E+00   1.6264E+02  0.000E+00  0.000E+00  0.000E+00  1.00602E+03  2.891E+00  4.192E+01  4.272E+00 -2.873E-01
   1   13    2     8     5    1.6264E+02 -2.5820E+00   1.6522E+02  0.000E+00  0.000E+00  0.000E+00  9.99787E+02  2.912E+00  4.223E+01  4.303E+00 -2.000E-01
   1   13    1     8     6    1.6522E+02 -1.9773E+00   1.6720E+02  0.000E+00  0.000E+00  0.000E+00  9.94802E+02  2.927E+00  4.245E+01  2.595E+00 -2.540E-01
   1    8    6     9     1    1.1063E+01  0.0000E+00   1.1063E+01  0.000E+00  0.000E+00  0.000E+00  1.08116E+03  2.408E+00  4.000E+00  0.000E+00  1.803E+00
   1    8    5     9     2    1.1063E+01  0.0000E+00   1.1063E+01  0.000E+00  0.000E+00  0.000E+00  1.08066E+03  2.408E+00  4.000E+00  0.000E+00  1.803E+00





UNSATURATED ZONE PACKAGE VOLUMETRIC BUDGET FOR  TIME STEP    30 STRESS PERIOD   46
  ------------------------------------------------------------------------------



     CUMULATIVE VOLUMES      L**3       RATES FOR THIS TIME STEP      L**3/T
     ------------------                 ------------------------

           IN:                                      IN:
           ---                                      ---
        INFILTRATION =  2107682281.4807          INFILTRATION =          15.4705

          OUT:                                     OUT:
          ----                                     ----
              UZF ET =  1973028607.9659                UZF ET =          15.3575
        UZF RECHARGE =     1883440.3295          UZF RECHARGE =       0.0000E+00

            IN - OUT =   132770233.1853              IN - OUT =           0.1130

          STORAGE:                                 STORAGE:
          --------                                 --------
      STORAGE CHANGE =   132772064.3974        STORAGE CHANGE =           0.1130

 PERCENT DISCREPANCY IS DIFFERENCE BETWEEN IN-OUT MINUS CHANGE IN STORAGE
 DIVIDED BY THE AVERAGE OF IN AND OUT TIMES 100

 PERCENT DISCREPANCY =          -0.00     PERCENT DISCREPANCY =           0.00






1
  VOLUMETRIC BUDGET FOR ENTIRE MODEL AT END OF TIME STEP   30, STRESS PERIOD  46
  ------------------------------------------------------------------------------

     CUMULATIVE VOLUMES      L**3       RATES FOR THIS TIME STEP      L**3/T
     ------------------                 ------------------------

           IN:                                      IN:
           ---                                      ---
               AG WELLS  =   351308352.0000                 AG WELLS  =           0.0000
      DIVERSION SEGMENTS =  1234652928.0000        DIVERSION SEGMENTS =          11.0628
           GW IRRIGATION =           0.0000             GW IRRIGATION =           0.0000
           SW IRRIGATION =           0.0000             SW IRRIGATION =           0.0000
        SYSTEM LOSSES GW =           0.0000          SYSTEM LOSSES GW =           0.0000
        SYSTEM LOSSES SW =           0.0000          SYSTEM LOSSES SW =           0.0000

                TOTAL IN =  1585961216.0000                  TOTAL IN =          11.0628

          OUT:                                     OUT:
          ----                                     ----
               AG WELLS  =           0.0000                 AG WELLS  =           0.0000
      DIVERSION SEGMENTS =           0.0000        DIVERSION SEGMENTS =           0.0000
           GW IRRIGATION =   351308352.0000             GW IRRIGATION =           0.0000
           SW IRRIGATION =  1234675200.0000             SW IRRIGATION =          11.0630
        SYSTEM LOSSES GW =           0.0000          SYSTEM LOSSES GW =           0.0000
        SYSTEM LOSSES SW =           0.0000          SYSTEM LOSSES SW =           0.0000

               TOTAL OUT =  1585983488.0000                 TOTAL OUT =          11.0630

                IN - OUT =      -22272.0000                  IN - OUT =      -2.2125E-04

     PERCENT DISCREPANCY =          -0.00         PERCENT DISCREPANCY =          -0.00



1
  VOLUMETRIC BUDGET FOR ENTIRE MODEL AT END OF TIME STEP   30, STRESS PERIOD  46
  ------------------------------------------------------------------------------

     CUMULATIVE VOLUMES      L**3       RATES FOR THIS TIME STEP      L**3/T
     ------------------                 ------------------------

           IN:                                      IN:
           ---                                      ---
             STORAGE     =   542817472.0000               STORAGE     =           6.5893
       CONSTANT HEAD     =           0.0000         CONSTANT HEAD     =           0.0000
     HEAD DEP BOUNDS     =    33864384.0000       HEAD DEP BOUNDS     =           0.2863
      STREAM LEAKAGE     =  1415568896.0000        STREAM LEAKAGE     =          11.3404
        UZF RECHARGE     =     1883440.3750          UZF RECHARGE     =           0.0000
               GW ET     =           0.0000                 GW ET     =           0.0000
     SURFACE LEAKAGE     =           0.0000       SURFACE LEAKAGE     =           0.0000
           AG WELLS      =           0.0000             AG WELLS      =           0.0000

                TOTAL IN =  1994134144.0000                  TOTAL IN =          18.2161

          OUT:                                     OUT:
          ----                                     ----
             STORAGE     =   324486208.0000               STORAGE     =           7.0787
       CONSTANT HEAD     =           0.0000         CONSTANT HEAD     =           0.0000
     HEAD DEP BOUNDS     =    34428544.0000       HEAD DEP BOUNDS     =           0.2874
      STREAM LEAKAGE     =  1280135808.0000        STREAM LEAKAGE     =          10.8500
        UZF RECHARGE     =           0.0000          UZF RECHARGE     =           0.0000
               GW ET     =     3779571.7500                 GW ET     =           0.0000
     SURFACE LEAKAGE     =           0.0000       SURFACE LEAKAGE     =           0.0000
           AG WELLS      =   351308352.0000             AG WELLS      =           0.0000

               TOTAL OUT =  1994138368.0000                 TOTAL OUT =          18.2162

                IN - OUT =       -4224.0000                  IN - OUT =      -9.9182E-05

     PERCENT DISCREPANCY =          -0.00         PERCENT DISCREPANCY =          -0.00






         TIME SUMMARY AT END OF TIME STEP   30 IN STRESS PERIOD   46
                    SECONDS     MINUTES      HOURS       DAYS        YEARS
                    -----------------------------------------------------------
   TIME STEP LENGTH  87667.      1461.1      24.352      1.0147     2.77799E-03
 STRESS PERIOD TIME 2.63000E+06  43833.      730.56      30.440     8.33397E-02
         TOTAL TIME 1.18435E+08 1.97392E+06  32899.      1370.8      3.7530    
1
1
                            STRESS PERIOD NO.   47, LENGTH =   2630000.    
                            -----------------------------------------------

                              NUMBER OF TIME STEPS =    30

                               MULTIPLIER FOR DELT =     1.000

                            INITIAL TIME STEP SIZE =   87666.66    

 REUSING NON-PARAMETER GHB CELLS FROM LAST STRESS PERIOD

      2 GHB CELLS

 REUSING STREAM SEGMENT DATA FROM LAST STRESS PERIOD



            AREAL INFILTRATION RATE
 READING ON UNIT   19 WITH FORMAT: (10F4.0)            

            1           2           3           4           5           6           7           8           9          10
 ........................................................................................................................
   1   1.2000E-09   0.000       0.000       0.000       0.000       0.000       0.000       0.000       0.000       0.000    
   2   2.1000E-09  2.0000E-09  8.0000E-10  8.5000E-09   0.000       0.000       0.000       0.000       0.000       0.000    
   3   5.0000E-10  1.1000E-09  8.8000E-09  5.5000E-09   0.000       0.000       0.000       0.000       0.000       0.000    
   4   8.5000E-09  1.1000E-09  1.1000E-09  1.1000E-09  2.0000E-09   0.000       0.000       0.000       0.000       0.000    
   5   8.5000E-09  1.1000E-09  1.1000E-09  1.1000E-09  1.1000E-09   0.000       0.000       0.000       0.000       0.000    
   6   8.5000E-09  5.2000E-09  2.1000E-09  1.1000E-09  1.5000E-09   0.000       0.000       0.000       0.000       0.000    
   7   8.5000E-09  5.2000E-09  2.1000E-09  1.2000E-09  2.0000E-09   0.000       0.000       0.000       0.000       0.000    
   8   5.0000E-10  5.2000E-09  2.1000E-09  1.2000E-09  5.0000E-09   0.000       0.000       0.000       0.000       0.000    
   9   5.0000E-10  5.2000E-09  2.1000E-09  1.2000E-09  5.0000E-09   0.000       0.000       0.000       0.000       0.000    
  10   5.0000E-10  5.2000E-09  2.1000E-09  1.2000E-09  5.8000E-09   0.000       0.000       0.000       0.000       0.000    
  11   1.0000E-10  1.1000E-09  1.1000E-09  1.2000E-09  5.0000E-09   0.000       0.000       0.000       0.000       0.000    
  12   1.1000E-09  1.1000E-09  1.1000E-09  1.1000E-09  2.0000E-09   0.000       0.000       0.000       0.000       0.000    
  13   1.1000E-09  2.2000E-09  2.2000E-09  2.1000E-09  1.0000E-09   0.000       0.000       0.000       0.000       0.000    
  14   2.0000E-10  5.5000E-09  5.5000E-09  5.2000E-09  1.0000E-09   0.000       0.000       0.000       0.000       0.000    
  15    0.000      8.8000E-09  8.8000E-09   0.000       0.000       0.000       0.000       0.000       0.000       0.000    

                  ET RATE =  5.000000E-09

 USING ET EXTINCTION DEPTH FROM PREVIOUS STRESS PERIOD. CURRENT PERIOD IS:      47

 USING EXTINCTION WATER CONTENT FROM PREVIOUS STRESS PERIOD. CURRENT PERIOD IS:      47

 USING AIR ENTRY PRESSURE FROM PREVIOUS STRESS PERIOD. CURRENT PERIOD IS:      47

 USING ROOT PRESSURE HEAD FROM PREVIOUS STRESS PERIOD. CURRENT PERIOD IS:      47

 USING ROOT ACTIVITY FROM PREVIOUS STRESS PERIOD. CURRENT PERIOD IS:      47

 PROCESSING AG STRESS PERIOD DATA

 READING AG STRESS PERIOD DATA

 READING IRRIGATION SEGMENT

 READING IRRIGATION WELL

 READING SUPPLEMENTAL WELL

 END PROCESSING AG STRESS PERIOD DATA OPTIONS
 
 SOLVING FOR HEAD 
                                                   Max.-Head-Change                         Max.-Flux-Residual
  Residual-Control   Outer-Iter.   Inner-Iter.     Column Row Layer    Maximum-Head-Change  Column Row Layer    Maximum-Flux-Residual          L2-NORM 
          0                 1           2             4    7     1       0.2757342201E-01       4    7    1         0.1452650134E+01      0.3072765644E+01
          0                 2           2             4    7     1      -0.2682154103E-02       4    7    1        -0.1452658215E+00      0.3092884303E+00
          0                 3           2             4    7     1       0.1826446317E-03       4    7    1         0.1016860426E-01      0.2193177414E-01
          0                 4           1             4   13     1      -0.1013745148E-04       4   13    1        -0.5973198813E-03      0.1351900948E-02

    ------------------------------------------------
       NWT REQUIRED            4 OUTER ITERATIONS 
       AND A TOTAL OF          7 INNER ITERATIONS.
    ------------------------------------------------

 NO OUTPUT CONTROL FOR STRESS PERIOD   47   TIME STEP    1
 
 SOLVING FOR HEAD 
                                                   Max.-Head-Change                         Max.-Flux-Residual
  Residual-Control   Outer-Iter.   Inner-Iter.     Column Row Layer    Maximum-Head-Change  Column Row Layer    Maximum-Flux-Residual          L2-NORM 
          0                 1           2             4    7     1       0.2719083605E-01       4    7    1         0.1432687353E+01      0.3013065819E+01
          0                 2           2             4    7     1      -0.2644938849E-02       4    7    1        -0.1432695389E+00      0.3026325178E+00
          0                 3           2             4    7     1       0.1801104119E-03       4    7    1         0.1002886447E-01      0.2149549957E-01
          0                 4           1             4   13     1      -0.1107217659E-04       4   13    1        -0.6523094071E-03      0.1420401554E-02

    ------------------------------------------------
       NWT REQUIRED            4 OUTER ITERATIONS 
       AND A TOTAL OF          7 INNER ITERATIONS.
    ------------------------------------------------

 NO OUTPUT CONTROL FOR STRESS PERIOD   47   TIME STEP    2
 
 SOLVING FOR HEAD 
                                                   Max.-Head-Change                         Max.-Flux-Residual
  Residual-Control   Outer-Iter.   Inner-Iter.     Column Row Layer    Maximum-Head-Change  Column Row Layer    Maximum-Flux-Residual          L2-NORM 
          0                 1           2             4    7     1       0.2681021205E-01       4    7    1         0.1412806551E+01      0.2955855766E+01
          0                 2           2             4    7     1      -0.2607914418E-02       4    7    1        -0.1412814528E+00      0.2968511943E+00
          0                 3           2             4    7     1       0.1775891862E-03       4    7    1         0.9889698425E-02      0.2111068111E-01
          0                 4           1             4   13     1      -0.1251825249E-04       4   13    1        -0.7374183806E-03      0.1535464892E-02

    ------------------------------------------------
       NWT REQUIRED            4 OUTER ITERATIONS 
       AND A TOTAL OF          7 INNER ITERATIONS.
    ------------------------------------------------

 NO OUTPUT CONTROL FOR STRESS PERIOD   47   TIME STEP    3
 
 SOLVING FOR HEAD 
                                                   Max.-Head-Change                         Max.-Flux-Residual
  Residual-Control   Outer-Iter.   Inner-Iter.     Column Row Layer    Maximum-Head-Change  Column Row Layer    Maximum-Flux-Residual          L2-NORM 
          0                 1           2             4    7     1       0.2643188879E-01       4    7    1         0.1393027470E+01      0.2900724793E+01
          0                 2           2             4    7     1      -0.2571113767E-02       4    7    1        -0.1393035374E+00      0.2912747618E+00
          0                 3           2             4    7     1       0.1750831992E-03       4    7    1         0.9751244345E-02      0.2072429210E-01
          0                 4           1             4   13     1      -0.1396512969E-04       4   13    1        -0.8225853035E-03      0.1656961831E-02

    ------------------------------------------------
       NWT REQUIRED            4 OUTER ITERATIONS 
       AND A TOTAL OF          7 INNER ITERATIONS.
    ------------------------------------------------

 NO OUTPUT CONTROL FOR STRESS PERIOD   47   TIME STEP    4
 
 SOLVING FOR HEAD 
                                                   Max.-Head-Change                         Max.-Flux-Residual
  Residual-Control   Outer-Iter.   Inner-Iter.     Column Row Layer    Maximum-Head-Change  Column Row Layer    Maximum-Flux-Residual          L2-NORM 
          0                 1           2             4    7     1       0.2605631302E-01       4    7    1         0.1373375036E+01      0.2847536413E+01
          0                 2           2             4    7     1      -0.2534580356E-02       4    7    1        -0.1373382855E+00      0.2858955999E+00
          0                 3           2             4    7     1       0.1725954113E-03       4    7    1         0.9613676753E-02      0.2034843952E-01
          0                 4           1             4   13     1      -0.1545759733E-04       4   13    1        -0.9104522496E-03      0.1776997433E-02

    ------------------------------------------------
       NWT REQUIRED            4 OUTER ITERATIONS 
       AND A TOTAL OF          7 INNER ITERATIONS.
    ------------------------------------------------

 NO OUTPUT CONTROL FOR STRESS PERIOD   47   TIME STEP    5
 
 SOLVING FOR HEAD 
                                                   Max.-Head-Change                         Max.-Flux-Residual
  Residual-Control   Outer-Iter.   Inner-Iter.     Column Row Layer    Maximum-Head-Change  Column Row Layer    Maximum-Flux-Residual          L2-NORM 
          0                 1           2             4    7     1       0.2568362662E-01       4    7    1         0.1353857689E+01      0.2796176665E+01
          0                 2           2             4    7     1      -0.2498327985E-02       4    7    1        -0.1353865413E+00      0.2807020432E+00
          0                 3           2             4    7     1       0.1701267605E-03       4    7    1         0.9477054679E-02      0.1998455624E-01
          0                 4           1             4   13     1      -0.1696060412E-04       4   13    1        -0.9989370792E-03      0.1920074656E-02

    ------------------------------------------------
       NWT REQUIRED            4 OUTER ITERATIONS 
       AND A TOTAL OF          7 INNER ITERATIONS.
    ------------------------------------------------

 NO OUTPUT CONTROL FOR STRESS PERIOD   47   TIME STEP    6
 
 SOLVING FOR HEAD 
                                                   Max.-Head-Change                         Max.-Flux-Residual
  Residual-Control   Outer-Iter.   Inner-Iter.     Column Row Layer    Maximum-Head-Change  Column Row Layer    Maximum-Flux-Residual          L2-NORM 
          0                 1           2             4    7     1       0.2531407016E-01       4    7    1         0.1334490147E+01      0.2744488366E+01
          0                 2           2             4    7     1      -0.2462380061E-02       4    7    1        -0.1334497768E+00      0.2753292089E+00
          0                 3           2             4    7     1       0.1676788413E-03       4    7    1         0.9341481192E-02      0.1971091295E-01
          0                 4           1             4   13     1      -0.1827074269E-04       4   13    1        -0.1075854195E-02      0.2041635032E-02

    ------------------------------------------------
       NWT REQUIRED            4 OUTER ITERATIONS 
       AND A TOTAL OF          7 INNER ITERATIONS.
    ------------------------------------------------

 NO OUTPUT CONTROL FOR STRESS PERIOD   47   TIME STEP    7
 
 SOLVING FOR HEAD 
                                                   Max.-Head-Change                         Max.-Flux-Residual
  Residual-Control   Outer-Iter.   Inner-Iter.     Column Row Layer    Maximum-Head-Change  Column Row Layer    Maximum-Flux-Residual          L2-NORM 
          0                 1           2             4    7     1       0.2494799156E-01       4    7    1         0.1315292248E+01      0.2696231353E+01
          0                 2           2             4    7     1      -0.2426770427E-02       4    7    1        -0.1315299758E+00      0.2703916588E+00
          0                 3           2             4    7     1       0.1652539590E-03       4    7    1         0.9207095175E-02      0.1942833415E-01
          0                 4           1             4   13     1      -0.1927217450E-04       4   13    1        -0.1134732795E-02      0.2162168745E-02

    ------------------------------------------------
       NWT REQUIRED            4 OUTER ITERATIONS 
       AND A TOTAL OF          7 INNER ITERATIONS.
    ------------------------------------------------

 NO OUTPUT CONTROL FOR STRESS PERIOD   47   TIME STEP    8
 
 SOLVING FOR HEAD 
                                                   Max.-Head-Change                         Max.-Flux-Residual
  Residual-Control   Outer-Iter.   Inner-Iter.     Column Row Layer    Maximum-Head-Change  Column Row Layer    Maximum-Flux-Residual          L2-NORM 
          0                 1           2             4    7     1       0.2458558897E-01       4    7    1         0.1296274668E+01      0.2650373957E+01
          0                 2           2             4    7     1      -0.2391518359E-02       4    7    1        -0.1296282060E+00      0.2657489846E+00
          0                 3           2             4    7     1       0.1628534258E-03       4    7    1         0.9073971347E-02      0.1909436975E-01
          0                 4           1             4   13     1      -0.2093684822E-04       4   13    1        -0.1232683305E-02      0.2326038126E-02

    ------------------------------------------------
       NWT REQUIRED            4 OUTER ITERATIONS 
       AND A TOTAL OF          7 INNER ITERATIONS.
    ------------------------------------------------

 NO OUTPUT CONTROL FOR STRESS PERIOD   47   TIME STEP    9
 
 SOLVING FOR HEAD 
                                                   Max.-Head-Change                         Max.-Flux-Residual
  Residual-Control   Outer-Iter.   Inner-Iter.     Column Row Layer    Maximum-Head-Change  Column Row Layer    Maximum-Flux-Residual          L2-NORM 
          0                 1           2             4    7     1       0.2422689684E-01       4    7    1         0.1277440316E+01      0.2605860092E+01
          0                 2           2             4    7     1      -0.2356627210E-02       4    7    1        -0.1277447585E+00      0.2612657655E+00
          0                 3           2             4    7     1       0.1604774696E-03       4    7    1         0.8942130080E-02      0.1875572391E-01
          0                 4           1             4   13     1      -0.2272523775E-04       4   13    1        -0.1338095074E-02      0.2494197375E-02

    ------------------------------------------------
       NWT REQUIRED            4 OUTER ITERATIONS 
       AND A TOTAL OF          7 INNER ITERATIONS.
    ------------------------------------------------

 NO OUTPUT CONTROL FOR STRESS PERIOD   47   TIME STEP   10
 
 SOLVING FOR HEAD 
                                                   Max.-Head-Change                         Max.-Flux-Residual
  Residual-Control   Outer-Iter.   Inner-Iter.     Column Row Layer    Maximum-Head-Change  Column Row Layer    Maximum-Flux-Residual          L2-NORM 
          0                 1           2             4    7     1       0.2387221109E-01       4    7    1         0.1258805707E+01      0.2562627975E+01
          0                 2           2             4    7     1      -0.2322125766E-02       4    7    1        -0.1258812849E+00      0.2569128490E+00
          0                 3           2             4    7     1       0.1581280512E-03       4    7    1         0.8811686984E-02      0.1842362324E-01
          0                 4           1             4   13     1      -0.2452953666E-04       4   13    1        -0.1444143371E-02      0.2682570259E-02

    ------------------------------------------------
       NWT REQUIRED            4 OUTER ITERATIONS 
       AND A TOTAL OF          7 INNER ITERATIONS.
    ------------------------------------------------

 NO OUTPUT CONTROL FOR STRESS PERIOD   47   TIME STEP   11
 
 SOLVING FOR HEAD 
                                                   Max.-Head-Change                         Max.-Flux-Residual
  Residual-Control   Outer-Iter.   Inner-Iter.     Column Row Layer    Maximum-Head-Change  Column Row Layer    Maximum-Flux-Residual          L2-NORM 
          0                 1           2             4    7     1       0.2352152912E-01       4    7    1         0.1240371456E+01      0.2520605213E+01
          0                 2           2             4    7     1      -0.2288013895E-02       4    7    1        -0.1240378466E+00      0.2526862619E+00
          0                 3           2             4    7     1       0.1558051611E-03       4    7    1         0.8682646378E-02      0.1810205396E-01
          0                 4           1             4   13     1      -0.2663172668E-04       4   13    1        -0.1567967082E-02      0.2884743848E-02

    ------------------------------------------------
       NWT REQUIRED            4 OUTER ITERATIONS 
       AND A TOTAL OF          7 INNER ITERATIONS.
    ------------------------------------------------

 NO OUTPUT CONTROL FOR STRESS PERIOD   47   TIME STEP   12
 
 SOLVING FOR HEAD 
                                                   Max.-Head-Change                         Max.-Flux-Residual
  Residual-Control   Outer-Iter.   Inner-Iter.     Column Row Layer    Maximum-Head-Change  Column Row Layer    Maximum-Flux-Residual          L2-NORM 
          0                 1           2             4    7     1       0.2317523984E-01       4    7    1         0.1222159516E+01      0.2479748153E+01
          0                 2           2             4    7     1      -0.2254329072E-02       4    7    1        -0.1222166393E+00      0.2485700261E+00
          0                 3           2             4    7     1       0.1535113517E-03       4    7    1         0.8555161936E-02      0.1778872145E-01
          0                 4           1             4   13     1      -0.2880323151E-04       4   13    1        -0.1695819432E-02      0.3100908962E-02

    ------------------------------------------------
       NWT REQUIRED            4 OUTER ITERATIONS 
       AND A TOTAL OF          7 INNER ITERATIONS.
    ------------------------------------------------

 NO OUTPUT CONTROL FOR STRESS PERIOD   47   TIME STEP   13
 
 SOLVING FOR HEAD 
                                                   Max.-Head-Change                         Max.-Flux-Residual
  Residual-Control   Outer-Iter.   Inner-Iter.     Column Row Layer    Maximum-Head-Change  Column Row Layer    Maximum-Flux-Residual          L2-NORM 
          0                 1           2             4    7     1       0.2283315893E-01       4    7    1         0.1204160611E+01      0.2439977525E+01
          0                 2           2             4    7     1      -0.2221053723E-02       4    7    1        -0.1204167351E+00      0.2445679538E+00
          0                 3           2             4    7     1       0.1512454257E-03       4    7    1         0.8429168717E-02      0.1748376823E-01
          0                 4           1             4   13     1      -0.3115283659E-04       4   13    1        -0.1834158396E-02      0.3337418537E-02

    ------------------------------------------------
       NWT REQUIRED            4 OUTER ITERATIONS 
       AND A TOTAL OF          7 INNER ITERATIONS.
    ------------------------------------------------

 NO OUTPUT CONTROL FOR STRESS PERIOD   47   TIME STEP   14
 
 SOLVING FOR HEAD 
                                                   Max.-Head-Change                         Max.-Flux-Residual
  Residual-Control   Outer-Iter.   Inner-Iter.     Column Row Layer    Maximum-Head-Change  Column Row Layer    Maximum-Flux-Residual          L2-NORM 
          0                 1           2             4    7     1       0.2249551330E-01       4    7    1         0.1186387261E+01      0.2401275440E+01
          0                 2           2             4    7     1      -0.2188209804E-02       4    7    1        -0.1186393863E+00      0.2406740496E+00
          0                 3           2             4    7     1       0.1490088785E-03       4    7    1         0.8304754376E-02      0.1718726482E-01
          0                 4           1             4   13     1      -0.3375073892E-04       4   13    1        -0.1987113262E-02      0.3598419372E-02

    ------------------------------------------------
       NWT REQUIRED            4 OUTER ITERATIONS 
       AND A TOTAL OF          7 INNER ITERATIONS.
    ------------------------------------------------

 NO OUTPUT CONTROL FOR STRESS PERIOD   47   TIME STEP   15
 
 SOLVING FOR HEAD 
                                                   Max.-Head-Change                         Max.-Flux-Residual
  Residual-Control   Outer-Iter.   Inner-Iter.     Column Row Layer    Maximum-Head-Change  Column Row Layer    Maximum-Flux-Residual          L2-NORM 
          0                 1           2             4    7     1       0.2216236928E-01       4    7    1         0.1168843871E+01      0.2363591881E+01
          0                 2           2             4    7     1      -0.2155803769E-02       4    7    1        -0.1168850334E+00      0.2368849841E+00
          0                 3           2             4    7     1       0.1468021503E-03       4    7    1         0.8181949770E-02      0.1687009218E-01
          0                 4           1             4   13     1      -0.3588610225E-04       4   13    1        -0.2112833526E-02      0.3815279344E-02

    ------------------------------------------------
       NWT REQUIRED            4 OUTER ITERATIONS 
       AND A TOTAL OF          7 INNER ITERATIONS.
    ------------------------------------------------

 NO OUTPUT CONTROL FOR STRESS PERIOD   47   TIME STEP   16
 
 SOLVING FOR HEAD 
                                                   Max.-Head-Change                         Max.-Flux-Residual
  Residual-Control   Outer-Iter.   Inner-Iter.     Column Row Layer    Maximum-Head-Change  Column Row Layer    Maximum-Flux-Residual          L2-NORM 
          0                 1           2             4    7     1       0.2183378498E-01       4    7    1         0.1151533881E+01      0.2326889129E+01
          0                 2           2             4    7     1      -0.2123841268E-02       4    7    1        -0.1151540205E+00      0.2331957916E+00
          0                 3           2             4    7     1       0.1446256239E-03       4    7    1         0.8060778923E-02      0.1660494982E-01
          0                 4           1             4   13     1      -0.3794542513E-04       4   13    1        -0.2234089287E-02      0.4023989099E-02

    ------------------------------------------------
       NWT REQUIRED            4 OUTER ITERATIONS 
       AND A TOTAL OF          7 INNER ITERATIONS.
    ------------------------------------------------

 NO OUTPUT CONTROL FOR STRESS PERIOD   47   TIME STEP   17
 
 SOLVING FOR HEAD 
                                                   Max.-Head-Change                         Max.-Flux-Residual
  Residual-Control   Outer-Iter.   Inner-Iter.     Column Row Layer    Maximum-Head-Change  Column Row Layer    Maximum-Flux-Residual          L2-NORM 
          0                 1           2             4    7     1       0.2150979812E-01       4    7    1         0.1134460304E+01      0.2291117502E+01
          0                 2           2             4    7     1      -0.2092325973E-02       4    7    1        -0.1134466488E+00      0.2296011825E+00
          0                 3           2             4    7     1       0.1424795513E-03       4    7    1         0.7941262992E-02      0.1634316894E-01
          0                 4           1             4   13     1      -0.4033343691E-04       4   13    1        -0.2374686317E-02      0.4266997744E-02

    ------------------------------------------------
       NWT REQUIRED            4 OUTER ITERATIONS 
       AND A TOTAL OF          7 INNER ITERATIONS.
    ------------------------------------------------

 NO OUTPUT CONTROL FOR STRESS PERIOD   47   TIME STEP   18
 
 SOLVING FOR HEAD 
                                                   Max.-Head-Change                         Max.-Flux-Residual
  Residual-Control   Outer-Iter.   Inner-Iter.     Column Row Layer    Maximum-Head-Change  Column Row Layer    Maximum-Flux-Residual          L2-NORM 
          0                 1           2             4    7     1       0.2119057451E-01       4    7    1         0.1117632464E+01      0.2256255679E+01
          0                 2           2             4    7     1      -0.2061274014E-02       4    7    1        -0.1117638509E+00      0.2260979282E+00
          0                 3           2             4    7     1       0.1403650307E-03       4    7    1         0.7823467229E-02      0.1608862105E-01
          0                 4           1             4   13     1      -0.4296616841E-04       4   13    1        -0.2529680914E-02      0.4537702107E-02

    ------------------------------------------------
       NWT REQUIRED            4 OUTER ITERATIONS 
       AND A TOTAL OF          7 INNER ITERATIONS.
    ------------------------------------------------

 NO OUTPUT CONTROL FOR STRESS PERIOD   47   TIME STEP   19
 
 SOLVING FOR HEAD 
                                                   Max.-Head-Change                         Max.-Flux-Residual
  Residual-Control   Outer-Iter.   Inner-Iter.     Column Row Layer    Maximum-Head-Change  Column Row Layer    Maximum-Flux-Residual          L2-NORM 
          0                 1           2             4    7     1       0.2087585990E-01       4    7    1         0.1101036855E+01      0.2222259502E+01
          0                 2           2             4    7     1      -0.2030660658E-02       4    7    1        -0.1101042762E+00      0.2226822395E+00
          0                 3           2             4    7     1       0.1382803761E-03       4    7    1         0.7707297076E-02      0.1583973287E-01
          0                 4           1             4   13     1      -0.4600968169E-04       4   13    1        -0.2708913290E-02      0.4847663481E-02

    ------------------------------------------------
       NWT REQUIRED            4 OUTER ITERATIONS 
       AND A TOTAL OF          7 INNER ITERATIONS.
    ------------------------------------------------

 NO OUTPUT CONTROL FOR STRESS PERIOD   47   TIME STEP   20
 
 SOLVING FOR HEAD 
                                                   Max.-Head-Change                         Max.-Flux-Residual
  Residual-Control   Outer-Iter.   Inner-Iter.     Column Row Layer    Maximum-Head-Change  Column Row Layer    Maximum-Flux-Residual          L2-NORM 
          0                 1           2             4    7     1       0.2056594370E-01       4    7    1         0.1084689765E+01      0.2189102297E+01
          0                 2           2             4    7     1      -0.2000514058E-02       4    7    1        -0.1084695534E+00      0.2193516250E+00
          0                 3           2             4    7     1       0.1362275064E-03       4    7    1         0.7592866556E-02      0.1559498359E-01
          0                 4           1             4   13     1      -0.4951687392E-04       4   13    1        -0.2915362084E-02      0.5217342986E-02

    ------------------------------------------------
       NWT REQUIRED            4 OUTER ITERATIONS 
       AND A TOTAL OF          7 INNER ITERATIONS.
    ------------------------------------------------

 NO OUTPUT CONTROL FOR STRESS PERIOD   47   TIME STEP   21
 
 SOLVING FOR HEAD 
                                                   Max.-Head-Change                         Max.-Flux-Residual
  Residual-Control   Outer-Iter.   Inner-Iter.     Column Row Layer    Maximum-Head-Change  Column Row Layer    Maximum-Flux-Residual          L2-NORM 
          0                 1           2             4    7     1       0.2026082630E-01       4    7    1         0.1068591465E+01      0.2156753421E+01
          0                 2           2             4    7     1      -0.1970834252E-02       4    7    1        -0.1068597098E+00      0.2161025562E+00
          0                 3           2             4    7     1       0.1342064239E-03       4    7    1         0.7480177600E-02      0.1535621713E-01
          0                 4           1             4   13     1      -0.5359485181E-04       4   13    1        -0.3155451147E-02      0.5631507772E-02

    ------------------------------------------------
       NWT REQUIRED            4 OUTER ITERATIONS 
       AND A TOTAL OF          7 INNER ITERATIONS.
    ------------------------------------------------

 NO OUTPUT CONTROL FOR STRESS PERIOD   47   TIME STEP   22
 
 SOLVING FOR HEAD 
                                                   Max.-Head-Change                         Max.-Flux-Residual
  Residual-Control   Outer-Iter.   Inner-Iter.     Column Row Layer    Maximum-Head-Change  Column Row Layer    Maximum-Flux-Residual          L2-NORM 
          0                 1           2             4    7     1       0.1996022054E-01       4    7    1         0.1052727237E+01      0.2125172661E+01
          0                 2           2             4    7     1      -0.1941593308E-02       4    7    1        -0.1052732735E+00      0.2129312271E+00
          0                 3           2             4    7     1       0.1322152263E-03       4    7    1         0.7369127138E-02      0.1512246072E-01
          0                 4           1             4   13     1      -0.5845774302E-04       4   13    1        -0.3441759193E-02      0.6132696011E-02

    ------------------------------------------------
       NWT REQUIRED            4 OUTER ITERATIONS 
       AND A TOTAL OF          7 INNER ITERATIONS.
    ------------------------------------------------

 NO OUTPUT CONTROL FOR STRESS PERIOD   47   TIME STEP   23
 
 SOLVING FOR HEAD 
                                                   Max.-Head-Change                         Max.-Flux-Residual
  Residual-Control   Outer-Iter.   Inner-Iter.     Column Row Layer    Maximum-Head-Change  Column Row Layer    Maximum-Flux-Residual          L2-NORM 
          0                 1           2             4    7     1       0.1966453069E-01       4    7    1         0.1037119037E+01      0.2094344931E+01
          0                 2           2             4    7     1      -0.1912830550E-02       4    7    1        -0.1037124402E+00      0.2098358381E+00
          0                 3           1             4    7     1       0.1302565916E-03       4    7    1         0.7259868875E-02      0.1489411473E-01
          0                 4           1             4   13     1      -0.6433909932E-04       4   13    1        -0.3788029253E-02      0.6740963218E-02

    ------------------------------------------------
       NWT REQUIRED            4 OUTER ITERATIONS 
       AND A TOTAL OF          6 INNER ITERATIONS.
    ------------------------------------------------

 NO OUTPUT CONTROL FOR STRESS PERIOD   47   TIME STEP   24
 
 SOLVING FOR HEAD 
                                                   Max.-Head-Change                         Max.-Flux-Residual
  Residual-Control   Outer-Iter.   Inner-Iter.     Column Row Layer    Maximum-Head-Change  Column Row Layer    Maximum-Flux-Residual          L2-NORM 
          0                 1           2             4    7     1       0.1937345718E-01       4    7    1         0.1021750982E+01      0.2064246854E+01
          0                 2           2             4    7     1      -0.1884516840E-02       4    7    1        -0.1021756215E+00      0.2068143034E+00
          0                 3           1             4    7     1       0.1283285346E-03       4    7    1         0.7152291646E-02      0.1467089113E-01
          0                 4           1             4   13     1      -0.7160309166E-04       4   13    1        -0.4215679051E-02      0.7494470026E-02

    ------------------------------------------------
       NWT REQUIRED            4 OUTER ITERATIONS 
       AND A TOTAL OF          6 INNER ITERATIONS.
    ------------------------------------------------

 NO OUTPUT CONTROL FOR STRESS PERIOD   47   TIME STEP   25
 
 SOLVING FOR HEAD 
                                                   Max.-Head-Change                         Max.-Flux-Residual
  Residual-Control   Outer-Iter.   Inner-Iter.     Column Row Layer    Maximum-Head-Change  Column Row Layer    Maximum-Flux-Residual          L2-NORM 
          0                 1           2             4    7     1       0.1908697392E-01       4    7    1         0.1006622275E+01      0.2034834149E+01
          0                 2           2             4    7     1      -0.1856649639E-02       4    7    1        -0.1006627379E+00      0.2038621097E+00
          0                 3           1             4    7     1       0.1264308835E-03       4    7    1         0.7046389862E-02      0.1445218298E-01
          0                 4           1             4   13     1      -0.8088486644E-04       4   13    1        -0.4762149269E-02      0.8455939288E-02

    ------------------------------------------------
       NWT REQUIRED            4 OUTER ITERATIONS 
       AND A TOTAL OF          6 INNER ITERATIONS.
    ------------------------------------------------

 NO OUTPUT CONTROL FOR STRESS PERIOD   47   TIME STEP   26
 
 SOLVING FOR HEAD 
                                                   Max.-Head-Change                         Max.-Flux-Residual
  Residual-Control   Outer-Iter.   Inner-Iter.     Column Row Layer    Maximum-Head-Change  Column Row Layer    Maximum-Flux-Residual          L2-NORM 
          0                 1           2             4    7     1       0.1880519422E-01       4    7    1         0.9917389358E+00      0.2006115636E+01
          0                 2           2             4    7     1      -0.1829239968E-02       4    7    1        -0.9917439115E-01      0.2009800466E+00
          0                 3           1             4    7     1       0.1245643884E-03       4    7    1         0.6942205663E-02      0.1423838840E-01
          0                 4           1             4   13     1      -0.9313356980E-04       4   13    1        -0.5483322757E-02      0.9727784810E-02

    ------------------------------------------------
       NWT REQUIRED            4 OUTER ITERATIONS 
       AND A TOTAL OF          6 INNER ITERATIONS.
    ------------------------------------------------

 NO OUTPUT CONTROL FOR STRESS PERIOD   47   TIME STEP   27
 
 SOLVING FOR HEAD 
                                                   Max.-Head-Change                         Max.-Flux-Residual
  Residual-Control   Outer-Iter.   Inner-Iter.     Column Row Layer    Maximum-Head-Change  Column Row Layer    Maximum-Flux-Residual          L2-NORM 
          0                 1           2             4    7     1       0.1852821136E-01       4    7    1         0.9771068387E+00      0.1978042874E+01
          0                 2           2             4    7     1      -0.1802296903E-02       4    7    1        -0.9771116892E-01      0.1981634380E+00
          0                 3           1             4    7     1       0.1227296676E-03       4    7    1         0.6839780196E-02      0.1403881027E-01
          0                 4           1             4   13     1      -0.1028726570E-03       4   13    1        -0.6056684922E-02      0.1073937852E-01
          0                 5           1             4   13     1       0.6891629523E-05       4   13    1         0.4168361875E-03      0.7219704110E-03

    ------------------------------------------------
       NWT REQUIRED            5 OUTER ITERATIONS 
       AND A TOTAL OF          7 INNER ITERATIONS.
    ------------------------------------------------

 NO OUTPUT CONTROL FOR STRESS PERIOD   47   TIME STEP   28
 
 SOLVING FOR HEAD 
                                                   Max.-Head-Change                         Max.-Flux-Residual
  Residual-Control   Outer-Iter.   Inner-Iter.     Column Row Layer    Maximum-Head-Change  Column Row Layer    Maximum-Flux-Residual          L2-NORM 
          0                 1           2             4    7     1       0.1825569990E-01       4    7    1         0.9627086517E+00      0.1950594153E+01
          0                 2           2             4    7     1      -0.1775788786E-02       4    7    1        -0.9627133790E-01      0.1954075676E+00
          0                 3           1             4    7     1       0.1209245650E-03       4    7    1         0.6738992095E-02      0.1386502147E-01
          0                 4           1             4   13     1      -0.1032371085E-03       4   13    1        -0.6078204710E-02      0.1077419942E-01
          0                 5           1             4   13     1       0.6938217749E-05       4   13    1         0.4196684658E-03      0.7259875898E-03

    ------------------------------------------------
       NWT REQUIRED            5 OUTER ITERATIONS 
       AND A TOTAL OF          7 INNER ITERATIONS.
    ------------------------------------------------

 NO OUTPUT CONTROL FOR STRESS PERIOD   47   TIME STEP   29
 
 SOLVING FOR HEAD 
                                                   Max.-Head-Change                         Max.-Flux-Residual
  Residual-Control   Outer-Iter.   Inner-Iter.     Column Row Layer    Maximum-Head-Change  Column Row Layer    Maximum-Flux-Residual          L2-NORM 
          0                 1           2             4    7     1       0.1798762060E-01       4    7    1         0.9485423587E+00      0.1924475811E+01
          0                 2           2             4    7     1      -0.1749711801E-02       4    7    1        -0.9485469650E-01      0.1926995069E+00
          0                 3           1             4    7     1       0.1191488203E-03       4    7    1         0.6639827250E-02      0.1371451228E-01
          0                 4           1             4   13     1      -0.1033996452E-03       4   13    1        -0.6087259218E-02      0.1079812692E-01
          0                 5           1             4   13     1       0.6933347278E-05       4   13    1         0.4193302557E-03      0.7271093295E-03

    ------------------------------------------------
       NWT REQUIRED            5 OUTER ITERATIONS 
       AND A TOTAL OF          7 INNER ITERATIONS.
    ------------------------------------------------

 NO OUTPUT CONTROL FOR STRESS PERIOD   47   TIME STEP   30



 STREAM LISTING     PERIOD     47   STEP       30

 LAYER ROW COL. STREAM  RCH.  FLOW INTO     FLOW TO   FLOW OUT OF   OVRLND.     DIRECT     STREAM       STREAM     STREAM     STREAM   STREAMBED  STREAMBED
                SEG.NO.  NO.  STRM. RCH.    AQUIFER    STRM. RCH.    RUNOFF     PRECIP       ET          HEAD       DEPTH      WIDTH   CONDCTNC.   GRADIENT

   1    1    1     1     1    1.5942E+01  1.9373E-01   1.5748E+01  0.000E+00  0.000E+00  0.000E+00  1.09408E+03  1.028E+00  1.069E+01  4.809E-02  1.343E+00
   1    2    2     1     2    1.5748E+01  2.9868E-01   1.5450E+01  0.000E+00  0.000E+00  0.000E+00  1.08908E+03  1.024E+00  1.060E+01  7.423E-02  1.341E+00
   1    3    3     1     3    1.5450E+01  2.5341E-01   1.5196E+01  0.000E+00  0.000E+00  0.000E+00  1.08344E+03  1.018E+00  1.051E+01  6.306E-02  1.339E+00
   1    3    4     1     4    1.5196E+01  2.3228E-01   1.4964E+01  0.000E+00  0.000E+00  0.000E+00  1.07842E+03  1.014E+00  1.043E+01  5.787E-02  1.338E+00
   1    4    5     2     1    1.2964E+01  2.9708E-01   1.2667E+01  0.000E+00  0.000E+00  0.000E+00  1.07274E+03  8.087E-01  1.200E+01  7.800E-02  1.270E+00
   1    5    6     2     2    1.2667E+01  2.2792E-01   1.2439E+01  0.000E+00  0.000E+00  0.000E+00  1.06731E+03  7.987E-01  1.200E+01  6.000E-02  1.266E+00
   1    6    6     2     3    1.2439E+01  2.2740E-01   1.2211E+01  0.000E+00  0.000E+00  0.000E+00  1.06258E+03  7.900E-01  1.200E+01  6.000E-02  1.263E+00
   1    7    6     2     4    1.2211E+01  2.2687E-01   1.1985E+01  0.000E+00  0.000E+00  0.000E+00  1.05786E+03  7.812E-01  1.200E+01  6.000E-02  1.260E+00
   1    8    6     2     5    1.1985E+01  2.2634E-01   1.1758E+01  0.000E+00  0.000E+00  0.000E+00  1.05313E+03  7.724E-01  1.200E+01  6.000E-02  1.257E+00
   1    3    5     3     1    2.0000E+00  2.8252E-01   1.7175E+00  0.000E+00  0.000E+00  0.000E+00  1.07555E+03  1.909E+00  9.636E+00  7.227E-02  1.955E+00
   1    3    6     3     2    1.7175E+00  2.4905E-01   1.4684E+00  0.000E+00  0.000E+00  0.000E+00  1.07264E+03  1.727E+00  8.909E+00  6.682E-02  1.864E+00
   1    3    7     3     3    1.4684E+00  1.9718E-01   1.2712E+00  0.000E+00  0.000E+00  0.000E+00  1.06987E+03  1.555E+00  8.218E+00  5.547E-02  1.777E+00
   1    4    8     3     4    1.2712E+00  2.2567E-01   1.0456E+00  0.000E+00  0.000E+00  0.000E+00  1.06682E+03  1.364E+00  7.455E+00  6.709E-02  1.682E+00
   1    5    8     3     5    1.0456E+00  1.5790E-01   8.8768E-01  0.000E+00  0.000E+00  0.000E+00  1.06362E+03  1.164E+00  6.655E+00  4.991E-02  1.582E+00
   1    6    8     3     6    8.8768E-01  5.5980E-02   8.3170E-01  0.000E+00  0.000E+00  0.000E+00  1.06158E+03  1.036E+00  6.145E+00  1.844E-02  1.518E+00
   1    5   10     4     1    1.0000E+01  9.0919E-02   9.9091E+00  0.000E+00  0.000E+00  0.000E+00  1.07836E+03  6.368E-01  1.000E+01  2.500E-02  1.212E+00
   1    5    9     4     2    9.9091E+00  1.8158E-01   9.7275E+00  0.000E+00  0.000E+00  0.000E+00  1.07154E+03  6.315E-01  1.000E+01  5.000E-02  1.211E+00
   1    6    8     4     3    9.7275E+00  1.2689E-01   9.6006E+00  0.000E+00  0.000E+00  0.000E+00  1.06381E+03  6.256E-01  1.000E+01  3.500E-02  1.209E+00
   1    6    8     5     1    1.0432E+01  2.2686E-01   1.0205E+01  0.000E+00  0.000E+00  0.000E+00  1.05868E+03  6.790E-01  1.542E+01  6.166E-02  1.226E+00
   1    7    7     5     2    1.0205E+01  2.7894E-01   9.9265E+00  0.000E+00  0.000E+00  0.000E+00  1.05417E+03  6.732E-01  1.519E+01  7.594E-02  1.224E+00
   1    8    7     5     3    9.9265E+00  1.9221E-01   9.7343E+00  0.000E+00  0.000E+00  0.000E+00  1.04992E+03  6.676E-01  1.497E+01  5.241E-02  1.223E+00
   1    8    6     5     4    9.7343E+00  1.3577E-01   9.5985E+00  0.000E+00  0.000E+00  0.000E+00  1.04691E+03  6.637E-01  1.482E+01  3.706E-02  1.221E+00
   1    9    6     6     1    2.0775E+01  2.4533E-01   2.0530E+01  0.000E+00  0.000E+00  0.000E+00  1.04382E+03  1.089E+00  1.200E+01  6.000E-02  1.363E+00
   1   10    7     6     2    2.0530E+01  2.4486E-01   2.0285E+01  0.000E+00  0.000E+00  0.000E+00  1.03926E+03  1.081E+00  1.200E+01  6.000E-02  1.360E+00
   1   11    7     6     3    2.0285E+01  2.4439E-01   2.0040E+01  0.000E+00  0.000E+00  0.000E+00  1.03471E+03  1.073E+00  1.200E+01  6.000E-02  1.358E+00
   1   12    7     6     4    2.0040E+01  2.4393E-01   1.9796E+01  0.000E+00  0.000E+00  0.000E+00  1.03016E+03  1.065E+00  1.200E+01  6.000E-02  1.355E+00
   1   13    7     6     5    1.9796E+01 -1.1910E-02   1.9808E+01  0.000E+00  0.000E+00  0.000E+00  1.02697E+03  1.062E+00  1.200E+01  2.400E-01 -1.654E-02
   1   14    9     7     1    1.5000E+02  1.3448E+00   1.4866E+02  0.000E+00  0.000E+00  0.000E+00  1.03987E+03  2.288E+00  5.529E+01  5.593E-01  8.015E-01
   1   13    8     7     2    1.4866E+02  1.8547E+00   1.4680E+02  0.000E+00  0.000E+00  0.000E+00  1.03478E+03  2.279E+00  5.526E+01  6.148E-01  1.006E+00
   1   13    7     7     3    1.4680E+02  1.4906E+00   1.4531E+02  0.000E+00  0.000E+00  0.000E+00  1.02969E+03  2.270E+00  5.522E+01  5.584E-01  8.897E-01
   1   13    6     8     1    1.6512E+02  9.1019E-01   1.6421E+02  0.000E+00  0.000E+00  0.000E+00  1.02479E+03  2.917E+00  4.230E+01  4.310E-01  7.039E-01
   1   13    5     8     2    1.6421E+02  1.6462E-01   1.6404E+02  0.000E+00  0.000E+00  0.000E+00  1.01854E+03  2.914E+00  4.225E+01  4.305E-01  1.275E-01
   1   13    4     8     3    1.6404E+02 -2.4809E+00   1.6652E+02  0.000E+00  0.000E+00  0.000E+00  1.01230E+03  2.921E+00  4.236E+01  4.316E+00 -1.916E-01
   1   13    3     8     4    1.6652E+02 -3.6575E+00   1.7018E+02  0.000E+00  0.000E+00  0.000E+00  1.00607E+03  2.941E+00  4.265E+01  4.346E+00 -2.805E-01
   1   13    2     8     5    1.7018E+02 -2.5681E+00   1.7275E+02  0.000E+00  0.000E+00  0.000E+00  9.99837E+02  2.962E+00  4.294E+01  4.376E+00 -1.956E-01
   1   13    1     8     6    1.7275E+02 -1.9615E+00   1.7471E+02  0.000E+00  0.000E+00  0.000E+00  9.94851E+02  2.976E+00  4.316E+01  2.639E+00 -2.478E-01
   1    8    6     9     1    5.8186E-01  0.0000E+00   5.8186E-01  0.000E+00  0.000E+00  0.000E+00  1.07916E+03  4.113E-01  4.000E+00  0.000E+00  1.137E+00
   1    8    5     9     2    5.8186E-01  0.0000E+00   5.8186E-01  0.000E+00  0.000E+00  0.000E+00  1.07866E+03  4.113E-01  4.000E+00  0.000E+00  1.137E+00





UNSATURATED ZONE PACKAGE VOLUMETRIC BUDGET FOR  TIME STEP    30 STRESS PERIOD   47
  ------------------------------------------------------------------------------



     CUMULATIVE VOLUMES      L**3       RATES FOR THIS TIME STEP      L**3/T
     ------------------                 ------------------------

           IN:                                      IN:
           ---                                      ---
        INFILTRATION =  2120806751.9934          INFILTRATION =           4.9894

          OUT:                                     OUT:
          ----                                     ----
              UZF ET =  1984153514.2638                UZF ET =           4.2300
        UZF RECHARGE =     1883440.3295          UZF RECHARGE =       0.0000E+00

            IN - OUT =   134769797.4001              IN - OUT =           0.7594

          STORAGE:                                 STORAGE:
          --------                                 --------
      STORAGE CHANGE =   134771628.6164        STORAGE CHANGE =           0.7594

 PERCENT DISCREPANCY IS DIFFERENCE BETWEEN IN-OUT MINUS CHANGE IN STORAGE
 DIVIDED BY THE AVERAGE OF IN AND OUT TIMES 100

 PERCENT DISCREPANCY =          -0.00     PERCENT DISCREPANCY =           0.00






1
  VOLUMETRIC BUDGET FOR ENTIRE MODEL AT END OF TIME STEP   30, STRESS PERIOD  47
  ------------------------------------------------------------------------------

     CUMULATIVE VOLUMES      L**3       RATES FOR THIS TIME STEP      L**3/T
     ------------------                 ------------------------

           IN:                                      IN:
           ---                                      ---
               AG WELLS  =   351308352.0000                 AG WELLS  =           0.0000
      DIVERSION SEGMENTS =  1236186240.0000        DIVERSION SEGMENTS =           0.5819
           GW IRRIGATION =           0.0000             GW IRRIGATION =           0.0000
           SW IRRIGATION =           0.0000             SW IRRIGATION =           0.0000
        SYSTEM LOSSES GW =           0.0000          SYSTEM LOSSES GW =           0.0000
        SYSTEM LOSSES SW =           0.0000          SYSTEM LOSSES SW =           0.0000

                TOTAL IN =  1587494656.0000                  TOTAL IN =           0.5819

          OUT:                                     OUT:
          ----                                     ----
               AG WELLS  =           0.0000                 AG WELLS  =           0.0000
      DIVERSION SEGMENTS =           0.0000        DIVERSION SEGMENTS =           0.0000
           GW IRRIGATION =   351308352.0000             GW IRRIGATION =           0.0000
           SW IRRIGATION =  1236208512.0000             SW IRRIGATION =           0.5819
        SYSTEM LOSSES GW =           0.0000          SYSTEM LOSSES GW =           0.0000
        SYSTEM LOSSES SW =           0.0000          SYSTEM LOSSES SW =           0.0000

               TOTAL OUT =  1587516928.0000                 TOTAL OUT =           0.5819

                IN - OUT =      -22272.0000                  IN - OUT =      -1.1623E-05

     PERCENT DISCREPANCY =          -0.00         PERCENT DISCREPANCY =          -0.00



1
  VOLUMETRIC BUDGET FOR ENTIRE MODEL AT END OF TIME STEP   30, STRESS PERIOD  47
  ------------------------------------------------------------------------------

     CUMULATIVE VOLUMES      L**3       RATES FOR THIS TIME STEP      L**3/T
     ------------------                 ------------------------

           IN:                                      IN:
           ---                                      ---
             STORAGE     =   556605248.0000               STORAGE     =           4.4783
       CONSTANT HEAD     =           0.0000         CONSTANT HEAD     =           0.0000
     HEAD DEP BOUNDS     =    34617504.0000       HEAD DEP BOUNDS     =           0.2864
      STREAM LEAKAGE     =  1445540480.0000        STREAM LEAKAGE     =          11.3286
        UZF RECHARGE     =     1883440.3750          UZF RECHARGE     =           0.0000
               GW ET     =           0.0000                 GW ET     =           0.0000
     SURFACE LEAKAGE     =           0.0000       SURFACE LEAKAGE     =           0.0000
           AG WELLS      =           0.0000             AG WELLS      =           0.0000

                TOTAL IN =  2038646656.0000                  TOTAL IN =          16.0932

          OUT:                                     OUT:
          ----                                     ----
             STORAGE     =   340693280.0000               STORAGE     =           5.1248
       CONSTANT HEAD     =           0.0000         CONSTANT HEAD     =           0.0000
     HEAD DEP BOUNDS     =    35186516.0000       HEAD DEP BOUNDS     =           0.2886
      STREAM LEAKAGE     =  1307682176.0000        STREAM LEAKAGE     =          10.6799
        UZF RECHARGE     =           0.0000          UZF RECHARGE     =           0.0000
               GW ET     =     3779571.7500                 GW ET     =           0.0000
     SURFACE LEAKAGE     =           0.0000       SURFACE LEAKAGE     =           0.0000
           AG WELLS      =   351308352.0000             AG WELLS      =           0.0000

               TOTAL OUT =  2038649856.0000                 TOTAL OUT =          16.0933

                IN - OUT =       -3200.0000                  IN - OUT =      -7.0572E-05

     PERCENT DISCREPANCY =          -0.00         PERCENT DISCREPANCY =          -0.00






         TIME SUMMARY AT END OF TIME STEP   30 IN STRESS PERIOD   47
                    SECONDS     MINUTES      HOURS       DAYS        YEARS
                    -----------------------------------------------------------
   TIME STEP LENGTH  87667.      1461.1      24.352      1.0147     2.77799E-03
 STRESS PERIOD TIME 2.63000E+06  43833.      730.56      30.440     8.33397E-02
         TOTAL TIME 1.21065E+08 2.01775E+06  33629.      1401.2      3.8363    
1
1
                            STRESS PERIOD NO.   48, LENGTH =   2630000.    
                            -----------------------------------------------

                              NUMBER OF TIME STEPS =    30

                               MULTIPLIER FOR DELT =     1.000

                            INITIAL TIME STEP SIZE =   87666.66    

 REUSING NON-PARAMETER GHB CELLS FROM LAST STRESS PERIOD

      2 GHB CELLS

 REUSING STREAM SEGMENT DATA FROM LAST STRESS PERIOD



            AREAL INFILTRATION RATE
 READING ON UNIT   19 WITH FORMAT: (10F4.0)            

            1           2           3           4           5           6           7           8           9          10
 ........................................................................................................................
   1   1.2000E-09   0.000       0.000       0.000       0.000       0.000       0.000       0.000       0.000       0.000    
   2   2.1000E-09  2.0000E-09  8.0000E-10  8.5000E-09   0.000       0.000       0.000       0.000       0.000       0.000    
   3   5.0000E-10  1.1000E-09  8.8000E-09  5.5000E-09   0.000       0.000       0.000       0.000       0.000       0.000    
   4   8.5000E-09  1.1000E-09  1.1000E-09  1.1000E-09  2.0000E-09   0.000       0.000       0.000       0.000       0.000    
   5   8.5000E-09  1.1000E-09  1.1000E-09  1.1000E-09  1.1000E-09   0.000       0.000       0.000       0.000       0.000    
   6   8.5000E-09  5.2000E-09  2.1000E-09  1.1000E-09  1.5000E-09   0.000       0.000       0.000       0.000       0.000    
   7   8.5000E-09  5.2000E-09  2.1000E-09  1.2000E-09  2.0000E-09   0.000       0.000       0.000       0.000       0.000    
   8   5.0000E-10  5.2000E-09  2.1000E-09  1.2000E-09  5.0000E-09   0.000       0.000       0.000       0.000       0.000    
   9   5.0000E-10  5.2000E-09  2.1000E-09  1.2000E-09  5.0000E-09   0.000       0.000       0.000       0.000       0.000    
  10   5.0000E-10  5.2000E-09  2.1000E-09  1.2000E-09  5.8000E-09   0.000       0.000       0.000       0.000       0.000    
  11   1.0000E-10  1.1000E-09  1.1000E-09  1.2000E-09  5.0000E-09   0.000       0.000       0.000       0.000       0.000    
  12   1.1000E-09  1.1000E-09  1.1000E-09  1.1000E-09  2.0000E-09   0.000       0.000       0.000       0.000       0.000    
  13   1.1000E-09  2.2000E-09  2.2000E-09  2.1000E-09  1.0000E-09   0.000       0.000       0.000       0.000       0.000    
  14   2.0000E-10  5.5000E-09  5.5000E-09  5.2000E-09  1.0000E-09   0.000       0.000       0.000       0.000       0.000    
  15    0.000      8.8000E-09  8.8000E-09   0.000       0.000       0.000       0.000       0.000       0.000       0.000    

                  ET RATE =  5.000000E-10

 USING ET EXTINCTION DEPTH FROM PREVIOUS STRESS PERIOD. CURRENT PERIOD IS:      48

 USING EXTINCTION WATER CONTENT FROM PREVIOUS STRESS PERIOD. CURRENT PERIOD IS:      48

 USING AIR ENTRY PRESSURE FROM PREVIOUS STRESS PERIOD. CURRENT PERIOD IS:      48

 USING ROOT PRESSURE HEAD FROM PREVIOUS STRESS PERIOD. CURRENT PERIOD IS:      48

 USING ROOT ACTIVITY FROM PREVIOUS STRESS PERIOD. CURRENT PERIOD IS:      48

 PROCESSING AG STRESS PERIOD DATA

 READING AG STRESS PERIOD DATA

 READING IRRIGATION SEGMENT

 READING IRRIGATION WELL

 READING SUPPLEMENTAL WELL

 END PROCESSING AG STRESS PERIOD DATA OPTIONS
 
 SOLVING FOR HEAD 
                                                   Max.-Head-Change                         Max.-Flux-Residual
  Residual-Control   Outer-Iter.   Inner-Iter.     Column Row Layer    Maximum-Head-Change  Column Row Layer    Maximum-Flux-Residual          L2-NORM 
          0                 1           2             4    7     1       0.1772420028E-01       4    7    1         0.9346206087E+00      0.1898579610E+01
          0                 2           2             4    7     1      -0.1724088009E-02       4    7    1        -0.9346250968E-01      0.1898578562E+00
          0                 3           1             4    7     1       0.1174039381E-03       4    7    1         0.6542374260E-02      0.1329002085E-01
          0                 4           1             4    7     1      -0.4671614035E-05       4    7    1        -0.2675835067E-03      0.5435889236E-03

    ------------------------------------------------
       NWT REQUIRED            4 OUTER ITERATIONS 
       AND A TOTAL OF          6 INNER ITERATIONS.
    ------------------------------------------------

 NO OUTPUT CONTROL FOR STRESS PERIOD   48   TIME STEP    1
 
 SOLVING FOR HEAD 
                                                   Max.-Head-Change                         Max.-Flux-Residual
  Residual-Control   Outer-Iter.   Inner-Iter.     Column Row Layer    Maximum-Head-Change  Column Row Layer    Maximum-Flux-Residual          L2-NORM 
          0                 1           2             4    7     1       0.1746524536E-01       4    7    1         0.9209331047E+00      0.1872911983E+01
          0                 2           2             4    7     1      -0.1698898586E-02       4    7    1        -0.9209374769E-01      0.1872911417E+00
          0                 3           1             4    7     1       0.1156886336E-03       4    7    1         0.6446560996E-02      0.1311033296E-01
          0                 4           1             4    7     1      -0.4603360292E-05       4    7    1        -0.2636647446E-03      0.5362077193E-03

    ------------------------------------------------
       NWT REQUIRED            4 OUTER ITERATIONS 
       AND A TOTAL OF          6 INNER ITERATIONS.
    ------------------------------------------------

 NO OUTPUT CONTROL FOR STRESS PERIOD   48   TIME STEP    2
 
 SOLVING FOR HEAD 
                                                   Max.-Head-Change                         Max.-Flux-Residual
  Residual-Control   Outer-Iter.   Inner-Iter.     Column Row Layer    Maximum-Head-Change  Column Row Layer    Maximum-Flux-Residual          L2-NORM 
          0                 1           2             4    7     1       0.1721069826E-01       4    7    1         0.9074770683E+00      0.1847801686E+01
          0                 2           2             4    7     1      -0.1674137926E-02       4    7    1        -0.9074813269E-01      0.1847801750E+00
          0                 3           1             4    7     1       0.1140025258E-03       4    7    1         0.6352368007E-02      0.1293458393E-01
          0                 4           1             4    7     1      -0.4536268647E-05       4    7    1        -0.2598122269E-03      0.5290263082E-03

    ------------------------------------------------
       NWT REQUIRED            4 OUTER ITERATIONS 
       AND A TOTAL OF          6 INNER ITERATIONS.
    ------------------------------------------------

 NO OUTPUT CONTROL FOR STRESS PERIOD   48   TIME STEP    3
 
 SOLVING FOR HEAD 
                                                   Max.-Head-Change                         Max.-Flux-Residual
  Residual-Control   Outer-Iter.   Inner-Iter.     Column Row Layer    Maximum-Head-Change  Column Row Layer    Maximum-Flux-Residual          L2-NORM 
          0                 1           2             4    7     1       0.1696063977E-01       4    7    1         0.8942569429E+00      0.1823233041E+01
          0                 2           2             4    7     1      -0.1649813889E-02       4    7    1        -0.8942610906E-01      0.1823233638E+00
          0                 3           1             4    7     1       0.1123461508E-03       4    7    1         0.6259826405E-02      0.1276261733E-01
          0                 4           1             4    7     1      -0.4470360168E-05       4    7    1        -0.2560272883E-03      0.5219943251E-03

    ------------------------------------------------
       NWT REQUIRED            4 OUTER ITERATIONS 
       AND A TOTAL OF          6 INNER ITERATIONS.
    ------------------------------------------------

 NO OUTPUT CONTROL FOR STRESS PERIOD   48   TIME STEP    4
 
 SOLVING FOR HEAD 
                                                   Max.-Head-Change                         Max.-Flux-Residual
  Residual-Control   Outer-Iter.   Inner-Iter.     Column Row Layer    Maximum-Head-Change  Column Row Layer    Maximum-Flux-Residual          L2-NORM 
          0                 1           2             4    7     1       0.1671473371E-01       4    7    1         0.8812548012E+00      0.1799176808E+01
          0                 2           2             4    7     1      -0.1625893774E-02       4    7    1        -0.8812588402E-01      0.1799177742E+00
          0                 3           1             4    7     1       0.1107172813E-03       4    7    1         0.6168810727E-02      0.1259422405E-01
          0                 4           1             4    7     1      -0.4405545747E-05       4    7    1        -0.2523047283E-03      0.5151063297E-03

    ------------------------------------------------
       NWT REQUIRED            4 OUTER ITERATIONS 
       AND A TOTAL OF          6 INNER ITERATIONS.
    ------------------------------------------------

 NO OUTPUT CONTROL FOR STRESS PERIOD   48   TIME STEP    5
 
 SOLVING FOR HEAD 
                                                   Max.-Head-Change                         Max.-Flux-Residual
  Residual-Control   Outer-Iter.   Inner-Iter.     Column Row Layer    Maximum-Head-Change  Column Row Layer    Maximum-Flux-Residual          L2-NORM 
          0                 1           2             4    7     1       0.1647319758E-01       4    7    1         0.8684827016E+00      0.1775627338E+01
          0                 2           2             4    7     1      -0.1602398737E-02       4    7    1        -0.8684866345E-01      0.1775627062E+00
          0                 3           1             4    7     1       0.1091173575E-03       4    7    1         0.6079405335E-02      0.1242947366E-01
          0                 4           1             4    7     1      -0.4341883062E-05       4    7    1        -0.2486480303E-03      0.5083901099E-03

    ------------------------------------------------
       NWT REQUIRED            4 OUTER ITERATIONS 
       AND A TOTAL OF          6 INNER ITERATIONS.
    ------------------------------------------------

 NO OUTPUT CONTROL FOR STRESS PERIOD   48   TIME STEP    6
 
 SOLVING FOR HEAD 
                                                   Max.-Head-Change                         Max.-Flux-Residual
  Residual-Control   Outer-Iter.   Inner-Iter.     Column Row Layer    Maximum-Head-Change  Column Row Layer    Maximum-Flux-Residual          L2-NORM 
          0                 1           2             4    7     1       0.1623596532E-01       4    7    1         0.8559371766E+00      0.1752580508E+01
          0                 2           2             4    7     1      -0.1579322355E-02       4    7    1        -0.8559410062E-01      0.1752558160E+00
          0                 3           1             4    7     1       0.1075459432E-03       4    7    1         0.5991586011E-02      0.1226790146E-01
          0                 4           1             4    7     1      -0.4279354959E-05       4    7    1        -0.2450562233E-03      0.5017574610E-03

    ------------------------------------------------
       NWT REQUIRED            4 OUTER ITERATIONS 
       AND A TOTAL OF          6 INNER ITERATIONS.
    ------------------------------------------------

 NO OUTPUT CONTROL FOR STRESS PERIOD   48   TIME STEP    7
 
 SOLVING FOR HEAD 
                                                   Max.-Head-Change                         Max.-Flux-Residual
  Residual-Control   Outer-Iter.   Inner-Iter.     Column Row Layer    Maximum-Head-Change  Column Row Layer    Maximum-Flux-Residual          L2-NORM 
          0                 1           2             4    7     1       0.1600282786E-01       4    7    1         0.8436074288E+00      0.1730005842E+01
          0                 2           2             4    7     1      -0.1556644289E-02       4    7    1        -0.8436111575E-01      0.1730007638E+00
          0                 3           1             4    7     1       0.1060016528E-03       4    7    1         0.5905277145E-02      0.1211003700E-01
          0                 4           1             4    7     1      -0.4217906409E-05       4    7    1        -0.2415261879E-03      0.4955622376E-03

    ------------------------------------------------
       NWT REQUIRED            4 OUTER ITERATIONS 
       AND A TOTAL OF          6 INNER ITERATIONS.
    ------------------------------------------------

 NO OUTPUT CONTROL FOR STRESS PERIOD   48   TIME STEP    8
 
 SOLVING FOR HEAD 
                                                   Max.-Head-Change                         Max.-Flux-Residual
  Residual-Control   Outer-Iter.   Inner-Iter.     Column Row Layer    Maximum-Head-Change  Column Row Layer    Maximum-Flux-Residual          L2-NORM 
          0                 1           2             4    7     1       0.1577373011E-01       4    7    1         0.8314899907E+00      0.1707898765E+01
          0                 2           2             4    7     1      -0.1534359178E-02       4    7    1        -0.8314936205E-01      0.1707900496E+00
          0                 3           1             4    7     1       0.1044841204E-03       4    7    1         0.5820454411E-02      0.1195529862E-01
          0                 4           1             4    7     1      -0.4157522443E-05       4    7    1        -0.2380569390E-03      0.4889770104E-03

    ------------------------------------------------
       NWT REQUIRED            4 OUTER ITERATIONS 
       AND A TOTAL OF          6 INNER ITERATIONS.
    ------------------------------------------------

 NO OUTPUT CONTROL FOR STRESS PERIOD   48   TIME STEP    9
 
 SOLVING FOR HEAD 
                                                   Max.-Head-Change                         Max.-Flux-Residual
  Residual-Control   Outer-Iter.   Inner-Iter.     Column Row Layer    Maximum-Head-Change  Column Row Layer    Maximum-Flux-Residual          L2-NORM 
          0                 1           2             4    7     1       0.1554874077E-01       4    7    1         0.8195893788E+00      0.1686243971E+01
          0                 2           2             4    7     1      -0.1512473709E-02       4    7    1        -0.8195929125E-01      0.1686246250E+00
          0                 3           1             4    7     1       0.1029938029E-03       4    7    1         0.5737149532E-02      0.1180371653E-01
          0                 4           1             4    7     1      -0.4098221482E-05       4    7    1        -0.2346497663E-03      0.4827737700E-03

    ------------------------------------------------
       NWT REQUIRED            4 OUTER ITERATIONS 
       AND A TOTAL OF          6 INNER ITERATIONS.
    ------------------------------------------------

 NO OUTPUT CONTROL FOR STRESS PERIOD   48   TIME STEP   10
 
 SOLVING FOR HEAD 
                                                   Max.-Head-Change                         Max.-Flux-Residual
  Residual-Control   Outer-Iter.   Inner-Iter.     Column Row Layer    Maximum-Head-Change  Column Row Layer    Maximum-Flux-Residual          L2-NORM 
          0                 1           2             4    7     1       0.1532765384E-01       4    7    1         0.8078944090E+00      0.1665023172E+01
          0                 2           2             4    7     1      -0.1490967840E-02       4    7    1        -0.8078978488E-01      0.1665025268E+00
          0                 3           1             4    7     1       0.1015293338E-03       4    7    1         0.5655284121E-02      0.1165517024E-01
          0                 4           1             4    7     1      -0.4039948611E-05       4    7    1        -0.2313014452E-03      0.4767083733E-03

    ------------------------------------------------
       NWT REQUIRED            4 OUTER ITERATIONS 
       AND A TOTAL OF          6 INNER ITERATIONS.
    ------------------------------------------------

 NO OUTPUT CONTROL FOR STRESS PERIOD   48   TIME STEP   11
 
 SOLVING FOR HEAD 
                                                   Max.-Head-Change                         Max.-Flux-Residual
  Residual-Control   Outer-Iter.   Inner-Iter.     Column Row Layer    Maximum-Head-Change  Column Row Layer    Maximum-Flux-Residual          L2-NORM 
          0                 1           2             4    7     1       0.1511067044E-01       4    7    1         0.7964165216E+00      0.1644228108E+01
          0                 2           2             4    7     1      -0.1469861137E-02       4    7    1        -0.7964198701E-01      0.1644230377E+00
          0                 3           1             4    7     1       0.1000920472E-03       4    7    1         0.5574938323E-02      0.1150961200E-01
          0                 4           1             4    7     1      -0.3982757939E-05       4    7    1        -0.2280153199E-03      0.4707442115E-03

    ------------------------------------------------
       NWT REQUIRED            4 OUTER ITERATIONS 
       AND A TOTAL OF          6 INNER ITERATIONS.
    ------------------------------------------------

 NO OUTPUT CONTROL FOR STRESS PERIOD   48   TIME STEP   12
 
 SOLVING FOR HEAD 
                                                   Max.-Head-Change                         Max.-Flux-Residual
  Residual-Control   Outer-Iter.   Inner-Iter.     Column Row Layer    Maximum-Head-Change  Column Row Layer    Maximum-Flux-Residual          L2-NORM 
          0                 1           2             4    7     1       0.1489745461E-01       4    7    1         0.7851366485E+00      0.1623855186E+01
          0                 2           2             4    7     1      -0.1449120919E-02       4    7    1        -0.7851399078E-01      0.1623857428E+00
          0                 3           1             4    7     1       0.9867971645E-04       4    7    1         0.5495978652E-02      0.1136700037E-01

    ------------------------------------------------
       NWT REQUIRED            3 OUTER ITERATIONS 
       AND A TOTAL OF          5 INNER ITERATIONS.
    ------------------------------------------------

 NO OUTPUT CONTROL FOR STRESS PERIOD   48   TIME STEP   13
 
 SOLVING FOR HEAD 
                                                   Max.-Head-Change                         Max.-Flux-Residual
  Residual-Control   Outer-Iter.   Inner-Iter.     Column Row Layer    Maximum-Head-Change  Column Row Layer    Maximum-Flux-Residual          L2-NORM 
          0                 1           2             4    7     1       0.1468799994E-01       4    7    1         0.7740558068E+00      0.1603874205E+01
          0                 2           2             4    7     1      -0.1428746563E-02       4    7    1        -0.7740589794E-01      0.1603876544E+00
          0                 3           1             4    7     1       0.9729229963E-04       4    7    1         0.5418412194E-02      0.1122713294E-01

    ------------------------------------------------
       NWT REQUIRED            3 OUTER ITERATIONS 
       AND A TOTAL OF          5 INNER ITERATIONS.
    ------------------------------------------------

 NO OUTPUT CONTROL FOR STRESS PERIOD   48   TIME STEP   14
 
 SOLVING FOR HEAD 
                                                   Max.-Head-Change                         Max.-Flux-Residual
  Residual-Control   Outer-Iter.   Inner-Iter.     Column Row Layer    Maximum-Head-Change  Column Row Layer    Maximum-Flux-Residual          L2-NORM 
          0                 1           2             4    7     1       0.1448230876E-01       4    7    1         0.7631737267E+00      0.1584280746E+01
          0                 2           2             4    7     1      -0.1408738295E-02       4    7    1        -0.7631768150E-01      0.1584283102E+00
          0                 3           1             4    7     1       0.9592981196E-04       4    7    1         0.5342237099E-02      0.1108998648E-01

    ------------------------------------------------
       NWT REQUIRED            3 OUTER ITERATIONS 
       AND A TOTAL OF          5 INNER ITERATIONS.
    ------------------------------------------------

 NO OUTPUT CONTROL FOR STRESS PERIOD   48   TIME STEP   15
 
 SOLVING FOR HEAD 
                                                   Max.-Head-Change                         Max.-Flux-Residual
  Residual-Control   Outer-Iter.   Inner-Iter.     Column Row Layer    Maximum-Head-Change  Column Row Layer    Maximum-Flux-Residual          L2-NORM 
          0                 1           2             4    7     1       0.1428017176E-01       4    7    1         0.7524794024E+00      0.1565062795E+01
          0                 2           2             4    7     1      -0.1389075755E-02       4    7    1        -0.7524824083E-01      0.1565065259E+00
          0                 3           1             4    7     1       0.9459086724E-04       4    7    1         0.5267376292E-02      0.1095549905E-01

    ------------------------------------------------
       NWT REQUIRED            3 OUTER ITERATIONS 
       AND A TOTAL OF          5 INNER ITERATIONS.
    ------------------------------------------------

 NO OUTPUT CONTROL FOR STRESS PERIOD   48   TIME STEP   16
 
 SOLVING FOR HEAD 
                                                   Max.-Head-Change                         Max.-Flux-Residual
  Residual-Control   Outer-Iter.   Inner-Iter.     Column Row Layer    Maximum-Head-Change  Column Row Layer    Maximum-Flux-Residual          L2-NORM 
          0                 1           2             4    7     1       0.1408180528E-01       4    7    1         0.7419841070E+00      0.1546233268E+01
          0                 2           2             4    7     1      -0.1369779988E-02       4    7    1        -0.7419870328E-01      0.1546235594E+00
          0                 3           1             4    7     1       0.9327689783E-04       4    7    1         0.5193908693E-02      0.1082365518E-01

    ------------------------------------------------
       NWT REQUIRED            3 OUTER ITERATIONS 
       AND A TOTAL OF          5 INNER ITERATIONS.
    ------------------------------------------------

 NO OUTPUT CONTROL FOR STRESS PERIOD   48   TIME STEP   17
 
 SOLVING FOR HEAD 
                                                   Max.-Head-Change                         Max.-Flux-Residual
  Residual-Control   Outer-Iter.   Inner-Iter.     Column Row Layer    Maximum-Head-Change  Column Row Layer    Maximum-Flux-Residual          L2-NORM 
          0                 1           2             4    7     1       0.1388699475E-01       4    7    1         0.7316769322E+00      0.1527761455E+01
          0                 2           2             4    7     1      -0.1350830120E-02       4    7    1        -0.7316797800E-01      0.1527763726E+00
          0                 3           1             4    7     1       0.9198648332E-04       4    7    1         0.5121757978E-02      0.1069434927E-01

    ------------------------------------------------
       NWT REQUIRED            3 OUTER ITERATIONS 
       AND A TOTAL OF          5 INNER ITERATIONS.
    ------------------------------------------------

 NO OUTPUT CONTROL FOR STRESS PERIOD   48   TIME STEP   18
 
 SOLVING FOR HEAD 
                                                   Max.-Head-Change                         Max.-Flux-Residual
  Residual-Control   Outer-Iter.   Inner-Iter.     Column Row Layer    Maximum-Head-Change  Column Row Layer    Maximum-Flux-Residual          L2-NORM 
          0                 1           2             4    7     1       0.1369567440E-01       4    7    1         0.7215541274E+00      0.1509650224E+01
          0                 2           2             4    7     1      -0.1332219755E-02       4    7    1        -0.7215568996E-01      0.1509652495E+00
          0                 3           1             4    7     1       0.9071918776E-04       4    7    1         0.5050897862E-02      0.1056759152E-01

    ------------------------------------------------
       NWT REQUIRED            3 OUTER ITERATIONS 
       AND A TOTAL OF          5 INNER ITERATIONS.
    ------------------------------------------------

 NO OUTPUT CONTROL FOR STRESS PERIOD   48   TIME STEP   19
 
 SOLVING FOR HEAD 
                                                   Max.-Head-Change                         Max.-Flux-Residual
  Residual-Control   Outer-Iter.   Inner-Iter.     Column Row Layer    Maximum-Head-Change  Column Row Layer    Maximum-Flux-Residual          L2-NORM 
          0                 1           2             4    7     1       0.1350776679E-01       4    7    1         0.7116122827E+00      0.1491858676E+01
          0                 2           2             4    7     1      -0.1313941360E-02       4    7    1        -0.7116149812E-01      0.1491860868E+00
          0                 3           1             4    7     1       0.8947449806E-04       4    7    1         0.4981304467E-02      0.1044303692E-01

    ------------------------------------------------
       NWT REQUIRED            3 OUTER ITERATIONS 
       AND A TOTAL OF          5 INNER ITERATIONS.
    ------------------------------------------------

 NO OUTPUT CONTROL FOR STRESS PERIOD   48   TIME STEP   20
 
 SOLVING FOR HEAD 
                                                   Max.-Head-Change                         Max.-Flux-Residual
  Residual-Control   Outer-Iter.   Inner-Iter.     Column Row Layer    Maximum-Head-Change  Column Row Layer    Maximum-Flux-Residual          L2-NORM 
          0                 1           2             4    7     1       0.1332321257E-01       4    7    1         0.7018473835E+00      0.1474416540E+01
          0                 2           2             4    7     1      -0.1295989161E-02       4    7    1        -0.7018500103E-01      0.1474418569E+00
          0                 3           1             4    7     1       0.8825202061E-04       4    7    1         0.4912949716E-02      0.1032093121E-01

    ------------------------------------------------
       NWT REQUIRED            3 OUTER ITERATIONS 
       AND A TOTAL OF          5 INNER ITERATIONS.
    ------------------------------------------------

 NO OUTPUT CONTROL FOR STRESS PERIOD   48   TIME STEP   21
 
 SOLVING FOR HEAD 
                                                   Max.-Head-Change                         Max.-Flux-Residual
  Residual-Control   Outer-Iter.   Inner-Iter.     Column Row Layer    Maximum-Head-Change  Column Row Layer    Maximum-Flux-Residual          L2-NORM 
          0                 1           2             4    7     1       0.1314207759E-01       4    7    1         0.6922637283E+00      0.1457306558E+01
          0                 2           2             4    7     1      -0.1278369563E-02       4    7    1        -0.6922662852E-01      0.1457308456E+00
          0                 3           1             4    7     1       0.8705219256E-04       4    7    1         0.4845863685E-02      0.1020112671E-01

    ------------------------------------------------
       NWT REQUIRED            3 OUTER ITERATIONS 
       AND A TOTAL OF          5 INNER ITERATIONS.
    ------------------------------------------------

 NO OUTPUT CONTROL FOR STRESS PERIOD   48   TIME STEP   22
 
 SOLVING FOR HEAD 
                                                   Max.-Head-Change                         Max.-Flux-Residual
  Residual-Control   Outer-Iter.   Inner-Iter.     Column Row Layer    Maximum-Head-Change  Column Row Layer    Maximum-Flux-Residual          L2-NORM 
          0                 1           2             4    7     1       0.1296402246E-01       4    7    1         0.6828426024E+00      0.1440508695E+01
          0                 2           2             4    7     1      -0.1261049554E-02       4    7    1        -0.6828450917E-01      0.1440510599E+00
          0                 3           1             4    7     1       0.8587276504E-04       4    7    1         0.4779915341E-02      0.1008363247E-01

    ------------------------------------------------
       NWT REQUIRED            3 OUTER ITERATIONS 
       AND A TOTAL OF          5 INNER ITERATIONS.
    ------------------------------------------------

 NO OUTPUT CONTROL FOR STRESS PERIOD   48   TIME STEP   23
 
 SOLVING FOR HEAD 
                                                   Max.-Head-Change                         Max.-Flux-Residual
  Residual-Control   Outer-Iter.   Inner-Iter.     Column Row Layer    Maximum-Head-Change  Column Row Layer    Maximum-Flux-Residual          L2-NORM 
          0                 1           2             4    7     1       0.1278938990E-01       4    7    1         0.6736032918E+00      0.1424016741E+01
          0                 2           2             4    7     1      -0.1244062471E-02       4    7    1        -0.6736057152E-01      0.1424018552E+00
          0                 3           1             4    7     1       0.8471600869E-04       4    7    1         0.4715239762E-02      0.9968131788E-02

    ------------------------------------------------
       NWT REQUIRED            3 OUTER ITERATIONS 
       AND A TOTAL OF          5 INNER ITERATIONS.
    ------------------------------------------------

 NO OUTPUT CONTROL FOR STRESS PERIOD   48   TIME STEP   24
 
 SOLVING FOR HEAD 
                                                   Max.-Head-Change                         Max.-Flux-Residual
  Residual-Control   Outer-Iter.   Inner-Iter.     Column Row Layer    Maximum-Head-Change  Column Row Layer    Maximum-Flux-Residual          L2-NORM 
          0                 1           2             4    7     1       0.1261770470E-01       4    7    1         0.6645193059E+00      0.1407833885E+01
          0                 2           2             4    7     1      -0.1227362087E-02       4    7    1        -0.6645216650E-01      0.1407835599E+00
          0                 3           1             4    7     1       0.8357877527E-04       4    7    1         0.4651651426E-02      0.9854850324E-02

    ------------------------------------------------
       NWT REQUIRED            3 OUTER ITERATIONS 
       AND A TOTAL OF          5 INNER ITERATIONS.
    ------------------------------------------------

 NO OUTPUT CONTROL FOR STRESS PERIOD   48   TIME STEP   25
 
 SOLVING FOR HEAD 
                                                   Max.-Head-Change                         Max.-Flux-Residual
  Residual-Control   Outer-Iter.   Inner-Iter.     Column Row Layer    Maximum-Head-Change  Column Row Layer    Maximum-Flux-Residual          L2-NORM 
          0                 1           2             4    7     1       0.1244918264E-01       4    7    1         0.6556028898E+00      0.1391951680E+01
          0                 2           2             4    7     1      -0.1210969394E-02       4    7    1        -0.6556051865E-01      0.1391953277E+00
          0                 3           1             4    7     1       0.8246249490E-04       4    7    1         0.4589236120E-02      0.9743670188E-02

    ------------------------------------------------
       NWT REQUIRED            3 OUTER ITERATIONS 
       AND A TOTAL OF          5 INNER ITERATIONS.
    ------------------------------------------------

 NO OUTPUT CONTROL FOR STRESS PERIOD   48   TIME STEP   26
 
 SOLVING FOR HEAD 
                                                   Max.-Head-Change                         Max.-Flux-Residual
  Residual-Control   Outer-Iter.   Inner-Iter.     Column Row Layer    Maximum-Head-Change  Column Row Layer    Maximum-Flux-Residual          L2-NORM 
          0                 1           2             4    7     1       0.1228374773E-01       4    7    1         0.6468504781E+00      0.1376348727E+01
          0                 2           2             4    7     1      -0.1194876999E-02       4    7    1        -0.6468527145E-01      0.1376350258E+00
          0                 3           1             4    7     1       0.8136666298E-04       4    7    1         0.4527968835E-02      0.9634434052E-02

    ------------------------------------------------
       NWT REQUIRED            3 OUTER ITERATIONS 
       AND A TOTAL OF          5 INNER ITERATIONS.
    ------------------------------------------------

 NO OUTPUT CONTROL FOR STRESS PERIOD   48   TIME STEP   27
 
 SOLVING FOR HEAD 
                                                   Max.-Head-Change                         Max.-Flux-Residual
  Residual-Control   Outer-Iter.   Inner-Iter.     Column Row Layer    Maximum-Head-Change  Column Row Layer    Maximum-Flux-Residual          L2-NORM 
          0                 1           2             4    7     1       0.1212119833E-01       4    7    1         0.6382507527E+00      0.1361023415E+01
          0                 2           2             4    7     1      -0.1179065288E-02       4    7    1        -0.6382529303E-01      0.1361024837E+00
          0                 3           1             4    7     1       0.8028994491E-04       4    7    1         0.4467770390E-02      0.9527172223E-02

    ------------------------------------------------
       NWT REQUIRED            3 OUTER ITERATIONS 
       AND A TOTAL OF          5 INNER ITERATIONS.
    ------------------------------------------------

 NO OUTPUT CONTROL FOR STRESS PERIOD   48   TIME STEP   28
 
 SOLVING FOR HEAD 
                                                   Max.-Head-Change                         Max.-Flux-Residual
  Residual-Control   Outer-Iter.   Inner-Iter.     Column Row Layer    Maximum-Head-Change  Column Row Layer    Maximum-Flux-Residual          L2-NORM 
          0                 1           2             4    7     1       0.1196148402E-01       4    7    1         0.6298006360E+00      0.1345985012E+01
          0                 2           2             4    7     1      -0.1163529356E-02       4    7    1        -0.6298027562E-01      0.1345986390E+00
          0                 3           1             4    7     1       0.7923200651E-04       4    7    1         0.4408619192E-02      0.9421907783E-02

    ------------------------------------------------
       NWT REQUIRED            3 OUTER ITERATIONS 
       AND A TOTAL OF          5 INNER ITERATIONS.
    ------------------------------------------------

 NO OUTPUT CONTROL FOR STRESS PERIOD   48   TIME STEP   29
 
 SOLVING FOR HEAD 
                                                   Max.-Head-Change                         Max.-Flux-Residual
  Residual-Control   Outer-Iter.   Inner-Iter.     Column Row Layer    Maximum-Head-Change  Column Row Layer    Maximum-Flux-Residual          L2-NORM 
          0                 1           2             4    7     1       0.1180467068E-01       4    7    1         0.6215048927E+00      0.1331199981E+01
          0                 2           2             4    7     1      -0.1148275612E-02       4    7    1        -0.6215069574E-01      0.1331201280E+00
          0                 3           1             4    7     1       0.7819328373E-04       4    7    1         0.4350548620E-02      0.9318412682E-02

    ------------------------------------------------
       NWT REQUIRED            3 OUTER ITERATIONS 
       AND A TOTAL OF          5 INNER ITERATIONS.
    ------------------------------------------------

 NO OUTPUT CONTROL FOR STRESS PERIOD   48   TIME STEP   30



 STREAM LISTING     PERIOD     48   STEP       30

 LAYER ROW COL. STREAM  RCH.  FLOW INTO     FLOW TO   FLOW OUT OF   OVRLND.     DIRECT     STREAM       STREAM     STREAM     STREAM   STREAMBED  STREAMBED
                SEG.NO.  NO.  STRM. RCH.    AQUIFER    STRM. RCH.    RUNOFF     PRECIP       ET          HEAD       DEPTH      WIDTH   CONDCTNC.   GRADIENT

   1    1    1     1     1    1.5750E+01  1.9239E-01   1.5557E+01  0.000E+00  0.000E+00  0.000E+00  1.09407E+03  1.025E+00  1.062E+01  4.780E-02  1.342E+00
   1    2    2     1     2    1.5557E+01  2.9659E-01   1.5261E+01  0.000E+00  0.000E+00  0.000E+00  1.08908E+03  1.020E+00  1.054E+01  7.378E-02  1.340E+00
   1    3    3     1     3    1.5261E+01  2.5163E-01   1.5009E+01  0.000E+00  0.000E+00  0.000E+00  1.08343E+03  1.015E+00  1.045E+01  6.268E-02  1.338E+00
   1    3    4     1     4    1.5009E+01  2.3063E-01   1.4778E+01  0.000E+00  0.000E+00  0.000E+00  1.07842E+03  1.010E+00  1.036E+01  5.751E-02  1.337E+00
   1    4    5     2     1    1.2778E+01  2.9653E-01   1.2482E+01  0.000E+00  0.000E+00  0.000E+00  1.07274E+03  8.017E-01  1.200E+01  7.800E-02  1.267E+00
   1    5    6     2     2    1.2482E+01  2.2750E-01   1.2254E+01  0.000E+00  0.000E+00  0.000E+00  1.06730E+03  7.916E-01  1.200E+01  6.000E-02  1.264E+00
   1    6    6     2     3    1.2254E+01  2.2697E-01   1.2027E+01  0.000E+00  0.000E+00  0.000E+00  1.06258E+03  7.829E-01  1.200E+01  6.000E-02  1.261E+00
   1    7    6     2     4    1.2027E+01  2.2644E-01   1.1801E+01  0.000E+00  0.000E+00  0.000E+00  1.05785E+03  7.741E-01  1.200E+01  6.000E-02  1.258E+00
   1    8    6     2     5    1.1801E+01  2.2591E-01   1.1575E+01  0.000E+00  0.000E+00  0.000E+00  1.05312E+03  7.652E-01  1.200E+01  6.000E-02  1.255E+00
   1    3    5     3     1    2.0000E+00  2.8252E-01   1.7175E+00  0.000E+00  0.000E+00  0.000E+00  1.07555E+03  1.909E+00  9.636E+00  7.227E-02  1.955E+00
   1    3    6     3     2    1.7175E+00  2.4905E-01   1.4684E+00  0.000E+00  0.000E+00  0.000E+00  1.07264E+03  1.727E+00  8.909E+00  6.682E-02  1.864E+00
   1    3    7     3     3    1.4684E+00  1.9718E-01   1.2712E+00  0.000E+00  0.000E+00  0.000E+00  1.06987E+03  1.555E+00  8.218E+00  5.547E-02  1.777E+00
   1    4    8     3     4    1.2712E+00  2.2567E-01   1.0456E+00  0.000E+00  0.000E+00  0.000E+00  1.06682E+03  1.364E+00  7.455E+00  6.709E-02  1.682E+00
   1    5    8     3     5    1.0456E+00  1.5790E-01   8.8768E-01  0.000E+00  0.000E+00  0.000E+00  1.06362E+03  1.164E+00  6.655E+00  4.991E-02  1.582E+00
   1    6    8     3     6    8.8768E-01  5.5980E-02   8.3170E-01  0.000E+00  0.000E+00  0.000E+00  1.06158E+03  1.036E+00  6.145E+00  1.844E-02  1.518E+00
   1    5   10     4     1    1.0000E+01  9.0919E-02   9.9091E+00  0.000E+00  0.000E+00  0.000E+00  1.07836E+03  6.368E-01  1.000E+01  2.500E-02  1.212E+00
   1    5    9     4     2    9.9091E+00  1.8158E-01   9.7275E+00  0.000E+00  0.000E+00  0.000E+00  1.07154E+03  6.315E-01  1.000E+01  5.000E-02  1.211E+00
   1    6    8     4     3    9.7275E+00  1.2689E-01   9.6006E+00  0.000E+00  0.000E+00  0.000E+00  1.06381E+03  6.256E-01  1.000E+01  3.500E-02  1.209E+00
   1    6    8     5     1    1.0432E+01  2.2686E-01   1.0205E+01  0.000E+00  0.000E+00  0.000E+00  1.05868E+03  6.790E-01  1.542E+01  6.166E-02  1.226E+00
   1    7    7     5     2    1.0205E+01  2.7894E-01   9.9265E+00  0.000E+00  0.000E+00  0.000E+00  1.05417E+03  6.732E-01  1.519E+01  7.594E-02  1.224E+00
   1    8    7     5     3    9.9265E+00  1.9221E-01   9.7343E+00  0.000E+00  0.000E+00  0.000E+00  1.04992E+03  6.676E-01  1.497E+01  5.241E-02  1.223E+00
   1    8    6     5     4    9.7343E+00  1.3577E-01   9.5985E+00  0.000E+00  0.000E+00  0.000E+00  1.04691E+03  6.637E-01  1.482E+01  3.706E-02  1.221E+00
   1    9    6     6     1    2.1173E+01  2.4608E-01   2.0927E+01  0.000E+00  0.000E+00  0.000E+00  1.04383E+03  1.101E+00  1.200E+01  6.000E-02  1.367E+00
   1   10    7     6     2    2.0927E+01  2.4562E-01   2.0682E+01  0.000E+00  0.000E+00  0.000E+00  1.03928E+03  1.094E+00  1.200E+01  6.000E-02  1.365E+00
   1   11    7     6     3    2.0682E+01  2.4515E-01   2.0437E+01  0.000E+00  0.000E+00  0.000E+00  1.03472E+03  1.086E+00  1.200E+01  6.000E-02  1.362E+00
   1   12    7     6     4    2.0437E+01  2.4468E-01   2.0192E+01  0.000E+00  0.000E+00  0.000E+00  1.03017E+03  1.078E+00  1.200E+01  6.000E-02  1.359E+00
   1   13    7     6     5    2.0192E+01 -9.3817E-03   2.0201E+01  0.000E+00  0.000E+00  0.000E+00  1.02698E+03  1.074E+00  1.200E+01  2.400E-01 -1.303E-02
   1   14    9     7     1    1.5000E+02  1.3452E+00   1.4865E+02  0.000E+00  0.000E+00  0.000E+00  1.03987E+03  2.288E+00  5.529E+01  5.593E-01  8.017E-01
   1   13    8     7     2    1.4865E+02  1.8548E+00   1.4680E+02  0.000E+00  0.000E+00  0.000E+00  1.03478E+03  2.279E+00  5.526E+01  6.148E-01  1.006E+00
   1   13    7     7     3    1.4680E+02  1.4894E+00   1.4531E+02  0.000E+00  0.000E+00  0.000E+00  1.02969E+03  2.270E+00  5.522E+01  5.584E-01  8.890E-01
   1   13    6     8     1    1.6551E+02  9.1353E-01   1.6460E+02  0.000E+00  0.000E+00  0.000E+00  1.02479E+03  2.920E+00  4.234E+01  4.314E-01  7.058E-01
   1   13    5     8     2    1.6460E+02  1.6830E-01   1.6443E+02  0.000E+00  0.000E+00  0.000E+00  1.01854E+03  2.916E+00  4.228E+01  4.309E-01  1.302E-01
   1   13    4     8     3    1.6443E+02 -2.4630E+00   1.6689E+02  0.000E+00  0.000E+00  0.000E+00  1.01230E+03  2.924E+00  4.239E+01  4.320E+00 -1.900E-01
   1   13    3     8     4    1.6689E+02 -3.6513E+00   1.7054E+02  0.000E+00  0.000E+00  0.000E+00  1.00607E+03  2.944E+00  4.269E+01  4.350E+00 -2.798E-01
   1   13    2     8     5    1.7054E+02 -2.5701E+00   1.7311E+02  0.000E+00  0.000E+00  0.000E+00  9.99839E+02  2.964E+00  4.298E+01  4.380E+00 -1.956E-01
   1   13    1     8     6    1.7311E+02 -1.9725E+00   1.7509E+02  0.000E+00  0.000E+00  0.000E+00  9.94854E+02  2.979E+00  4.319E+01  2.641E+00 -2.490E-01
   1    8    6     9     1    0.0000E+00  0.0000E+00   0.0000E+00  0.000E+00  0.000E+00  0.000E+00  1.07875E+03  0.000E+00  4.000E+00  0.000E+00  1.000E+00
   1    8    5     9     2    0.0000E+00  0.0000E+00   0.0000E+00  0.000E+00  0.000E+00  0.000E+00  1.07825E+03  0.000E+00  4.000E+00  0.000E+00  1.000E+00





UNSATURATED ZONE PACKAGE VOLUMETRIC BUDGET FOR  TIME STEP    30 STRESS PERIOD   48
  ------------------------------------------------------------------------------



     CUMULATIVE VOLUMES      L**3       RATES FOR THIS TIME STEP      L**3/T
     ------------------                 ------------------------

           IN:                                      IN:
           ---                                      ---
        INFILTRATION =  2132398476.5515          INFILTRATION =           4.4075

          OUT:                                     OUT:
          ----                                     ----
              UZF ET =  1986060346.0454                UZF ET =           0.7251
        UZF RECHARGE =     1883440.3295          UZF RECHARGE =       0.0000E+00

            IN - OUT =   144454690.1766              IN - OUT =           3.6824

          STORAGE:                                 STORAGE:
          --------                                 --------
      STORAGE CHANGE =   144456516.7893        STORAGE CHANGE =           3.6824

 PERCENT DISCREPANCY IS DIFFERENCE BETWEEN IN-OUT MINUS CHANGE IN STORAGE
 DIVIDED BY THE AVERAGE OF IN AND OUT TIMES 100

 PERCENT DISCREPANCY =          -0.00     PERCENT DISCREPANCY =           0.00






1
  VOLUMETRIC BUDGET FOR ENTIRE MODEL AT END OF TIME STEP   30, STRESS PERIOD  48
  ------------------------------------------------------------------------------

     CUMULATIVE VOLUMES      L**3       RATES FOR THIS TIME STEP      L**3/T
     ------------------                 ------------------------

           IN:                                      IN:
           ---                                      ---
               AG WELLS  =   351308352.0000                 AG WELLS  =           0.0000
      DIVERSION SEGMENTS =  1236186240.0000        DIVERSION SEGMENTS =           0.0000
           GW IRRIGATION =           0.0000             GW IRRIGATION =           0.0000
           SW IRRIGATION =           0.0000             SW IRRIGATION =           0.0000
        SYSTEM LOSSES GW =           0.0000          SYSTEM LOSSES GW =           0.0000
        SYSTEM LOSSES SW =           0.0000          SYSTEM LOSSES SW =           0.0000

                TOTAL IN =  1587494656.0000                  TOTAL IN =           0.0000

          OUT:                                     OUT:
          ----                                     ----
               AG WELLS  =           0.0000                 AG WELLS  =           0.0000
      DIVERSION SEGMENTS =           0.0000        DIVERSION SEGMENTS =           0.0000
           GW IRRIGATION =   351308352.0000             GW IRRIGATION =           0.0000
           SW IRRIGATION =  1236208512.0000             SW IRRIGATION =           0.0000
        SYSTEM LOSSES GW =           0.0000          SYSTEM LOSSES GW =           0.0000
        SYSTEM LOSSES SW =           0.0000          SYSTEM LOSSES SW =           0.0000

               TOTAL OUT =  1587516928.0000                 TOTAL OUT =           0.0000

                IN - OUT =      -22272.0000                  IN - OUT =           0.0000

     PERCENT DISCREPANCY =          -0.00         PERCENT DISCREPANCY =           0.00



1
  VOLUMETRIC BUDGET FOR ENTIRE MODEL AT END OF TIME STEP   30, STRESS PERIOD  48
  ------------------------------------------------------------------------------

     CUMULATIVE VOLUMES      L**3       RATES FOR THIS TIME STEP      L**3/T
     ------------------                 ------------------------

           IN:                                      IN:
           ---                                      ---
             STORAGE     =   566738816.0000               STORAGE     =           3.3506
       CONSTANT HEAD     =           0.0000         CONSTANT HEAD     =           0.0000
     HEAD DEP BOUNDS     =    35370696.0000       HEAD DEP BOUNDS     =           0.2864
      STREAM LEAKAGE     =  1475329408.0000        STREAM LEAKAGE     =          11.3288
        UZF RECHARGE     =     1883440.3750          UZF RECHARGE     =           0.0000
               GW ET     =           0.0000                 GW ET     =           0.0000
     SURFACE LEAKAGE     =           0.0000       SURFACE LEAKAGE     =           0.0000
           AG WELLS      =           0.0000             AG WELLS      =           0.0000

                TOTAL IN =  2079322368.0000                  TOTAL IN =          14.9658

          OUT:                                     OUT:
          ----                                     ----
             STORAGE     =   352565184.0000               STORAGE     =           4.0109
       CONSTANT HEAD     =           0.0000         CONSTANT HEAD     =           0.0000
     HEAD DEP BOUNDS     =    35945912.0000       HEAD DEP BOUNDS     =           0.2888
      STREAM LEAKAGE     =  1335726976.0000        STREAM LEAKAGE     =          10.6662
        UZF RECHARGE     =           0.0000          UZF RECHARGE     =           0.0000
               GW ET     =     3779571.7500                 GW ET     =           0.0000
     SURFACE LEAKAGE     =           0.0000       SURFACE LEAKAGE     =           0.0000
           AG WELLS      =   351308352.0000             AG WELLS      =           0.0000

               TOTAL OUT =  2079325952.0000                 TOTAL OUT =          14.9660

                IN - OUT =       -3584.0000                  IN - OUT =      -1.8597E-04

     PERCENT DISCREPANCY =          -0.00         PERCENT DISCREPANCY =          -0.00






         TIME SUMMARY AT END OF TIME STEP   30 IN STRESS PERIOD   48
                    SECONDS     MINUTES      HOURS       DAYS        YEARS
                    -----------------------------------------------------------
   TIME STEP LENGTH  87667.      1461.1      24.352      1.0147     2.77799E-03
 STRESS PERIOD TIME 2.63000E+06  43833.      730.56      30.440     8.33397E-02
         TOTAL TIME 1.23695E+08 2.06158E+06  34360.      1431.7      3.9197    
1
1
                            STRESS PERIOD NO.   49, LENGTH =   2630000.    
                            -----------------------------------------------

                              NUMBER OF TIME STEPS =    30

                               MULTIPLIER FOR DELT =     1.000

                            INITIAL TIME STEP SIZE =   87666.66    

 REUSING NON-PARAMETER GHB CELLS FROM LAST STRESS PERIOD

      2 GHB CELLS

 REUSING STREAM SEGMENT DATA FROM LAST STRESS PERIOD



            AREAL INFILTRATION RATE
 READING ON UNIT   19 WITH FORMAT: (10F4.0)            

            1           2           3           4           5           6           7           8           9          10
 ........................................................................................................................
   1   1.2000E-09   0.000       0.000       0.000       0.000       0.000       0.000       0.000       0.000       0.000    
   2   2.1000E-09  2.0000E-09  8.0000E-10  8.5000E-09   0.000       0.000       0.000       0.000       0.000       0.000    
   3   5.0000E-10  1.1000E-09  8.8000E-09  5.5000E-09   0.000       0.000       0.000       0.000       0.000       0.000    
   4   8.5000E-09  1.1000E-09  1.1000E-09  1.1000E-09  2.0000E-09   0.000       0.000       0.000       0.000       0.000    
   5   8.5000E-09  1.1000E-09  1.1000E-09  1.1000E-09  1.1000E-09   0.000       0.000       0.000       0.000       0.000    
   6   8.5000E-09  5.2000E-09  2.1000E-09  1.1000E-09  1.5000E-09   0.000       0.000       0.000       0.000       0.000    
   7   8.5000E-09  5.2000E-09  2.1000E-09  1.2000E-09  2.0000E-09   0.000       0.000       0.000       0.000       0.000    
   8   5.0000E-10  5.2000E-09  2.1000E-09  1.2000E-09  5.0000E-09   0.000       0.000       0.000       0.000       0.000    
   9   5.0000E-10  5.2000E-09  2.1000E-09  1.2000E-09  5.0000E-09   0.000       0.000       0.000       0.000       0.000    
  10   5.0000E-10  5.2000E-09  2.1000E-09  1.2000E-09  5.8000E-09   0.000       0.000       0.000       0.000       0.000    
  11   1.0000E-10  1.1000E-09  1.1000E-09  1.2000E-09  5.0000E-09   0.000       0.000       0.000       0.000       0.000    
  12   1.1000E-09  1.1000E-09  1.1000E-09  1.1000E-09  2.0000E-09   0.000       0.000       0.000       0.000       0.000    
  13   1.1000E-09  2.2000E-09  2.2000E-09  2.1000E-09  1.0000E-09   0.000       0.000       0.000       0.000       0.000    
  14   2.0000E-10  5.5000E-09  5.5000E-09  5.2000E-09  1.0000E-09   0.000       0.000       0.000       0.000       0.000    
  15    0.000      8.8000E-09  8.8000E-09   0.000       0.000       0.000       0.000       0.000       0.000       0.000    

                  ET RATE =  5.000000E-10

 USING ET EXTINCTION DEPTH FROM PREVIOUS STRESS PERIOD. CURRENT PERIOD IS:      49

 USING EXTINCTION WATER CONTENT FROM PREVIOUS STRESS PERIOD. CURRENT PERIOD IS:      49

 USING AIR ENTRY PRESSURE FROM PREVIOUS STRESS PERIOD. CURRENT PERIOD IS:      49

 USING ROOT PRESSURE HEAD FROM PREVIOUS STRESS PERIOD. CURRENT PERIOD IS:      49

 USING ROOT ACTIVITY FROM PREVIOUS STRESS PERIOD. CURRENT PERIOD IS:      49

 PROCESSING AG STRESS PERIOD DATA

 READING AG STRESS PERIOD DATA

 READING IRRIGATION SEGMENT

 READING IRRIGATION WELL

 READING SUPPLEMENTAL WELL

 END PROCESSING AG STRESS PERIOD DATA OPTIONS
 
 SOLVING FOR HEAD 
                                                   Max.-Head-Change                         Max.-Flux-Residual
  Residual-Control   Outer-Iter.   Inner-Iter.     Column Row Layer    Maximum-Head-Change  Column Row Layer    Maximum-Flux-Residual          L2-NORM 
          0                 1           2             4    7     1       0.1165070323E-01       4    7    1         0.6133595598E+00      0.1316683698E+01
          0                 2           2             4    7     1      -0.1133298698E-02       4    7    1        -0.6133615705E-01      0.1316684885E+00
          0                 3           1             4    7     1       0.7717341245E-04       4    7    1         0.4293530946E-02      0.9216791348E-02

    ------------------------------------------------
       NWT REQUIRED            3 OUTER ITERATIONS 
       AND A TOTAL OF          5 INNER ITERATIONS.
    ------------------------------------------------

 NO OUTPUT CONTROL FOR STRESS PERIOD   49   TIME STEP    1
 
 SOLVING FOR HEAD 
                                                   Max.-Head-Change                         Max.-Flux-Residual
  Residual-Control   Outer-Iter.   Inner-Iter.     Column Row Layer    Maximum-Head-Change  Column Row Layer    Maximum-Flux-Residual          L2-NORM 
          0                 1           2             4    7     1       0.1149951811E-01       4    7    1         0.6053617822E+00      0.1302423994E+01
          0                 2           2             4    7     1      -0.1118592431E-02       4    7    1        -0.6053637404E-01      0.1302425025E+00
          0                 3           1             4    7     1       0.7617197080E-04       4    7    1         0.4237546161E-02      0.9116975290E-02

    ------------------------------------------------
       NWT REQUIRED            3 OUTER ITERATIONS 
       AND A TOTAL OF          5 INNER ITERATIONS.
    ------------------------------------------------

 NO OUTPUT CONTROL FOR STRESS PERIOD   49   TIME STEP    2
 
 SOLVING FOR HEAD 
                                                   Max.-Head-Change                         Max.-Flux-Residual
  Residual-Control   Outer-Iter.   Inner-Iter.     Column Row Layer    Maximum-Head-Change  Column Row Layer    Maximum-Flux-Residual          L2-NORM 
          0                 1           2             4    7     1       0.1135091813E-01       4    7    1         0.5975008863E+00      0.1288406119E+01
          0                 2           2             4    7     1      -0.1104137629E-02       4    7    1        -0.5975027935E-01      0.1288407089E+00
          0                 3           1             4    7     1       0.7518765306E-04       4    7    1         0.4182519564E-02      0.9018845693E-02

    ------------------------------------------------
       NWT REQUIRED            3 OUTER ITERATIONS 
       AND A TOTAL OF          5 INNER ITERATIONS.
    ------------------------------------------------

 NO OUTPUT CONTROL FOR STRESS PERIOD   49   TIME STEP    3
 
 SOLVING FOR HEAD 
                                                   Max.-Head-Change                         Max.-Flux-Residual
  Residual-Control   Outer-Iter.   Inner-Iter.     Column Row Layer    Maximum-Head-Change  Column Row Layer    Maximum-Flux-Residual          L2-NORM 
          0                 1           2             4    7     1       0.1120498266E-01       4    7    1         0.5897814036E+00      0.1275647084E+01
          0                 2           2             4    7     1      -0.1089942015E-02       4    7    1        -0.5897832614E-01      0.1275640060E+00
          0                 3           1             4    7     1       0.7422098522E-04       4    7    1         0.4128482851E-02      0.8929404314E-02

    ------------------------------------------------
       NWT REQUIRED            3 OUTER ITERATIONS 
       AND A TOTAL OF          5 INNER ITERATIONS.
    ------------------------------------------------

 NO OUTPUT CONTROL FOR STRESS PERIOD   49   TIME STEP    4
 
 SOLVING FOR HEAD 
                                                   Max.-Head-Change                         Max.-Flux-Residual
  Residual-Control   Outer-Iter.   Inner-Iter.     Column Row Layer    Maximum-Head-Change  Column Row Layer    Maximum-Flux-Residual          L2-NORM 
          0                 1           2             4    7     1       0.1106164630E-01       4    7    1         0.5822000722E+00      0.1263196995E+01
          0                 2           2             4    7     1      -0.1075999224E-02       4    7    1        -0.5822018819E-01      0.1263175543E+00
          0                 3           1             4    7     1       0.7327153323E-04       4    7    1         0.4075413224E-02      0.8841997703E-02

    ------------------------------------------------
       NWT REQUIRED            3 OUTER ITERATIONS 
       AND A TOTAL OF          5 INNER ITERATIONS.
    ------------------------------------------------

 NO OUTPUT CONTROL FOR STRESS PERIOD   49   TIME STEP    5
 
 SOLVING FOR HEAD 
                                                   Max.-Head-Change                         Max.-Flux-Residual
  Residual-Control   Outer-Iter.   Inner-Iter.     Column Row Layer    Maximum-Head-Change  Column Row Layer    Maximum-Flux-Residual          L2-NORM 
          0                 1           2             4    7     1       0.1092085293E-01       4    7    1         0.5747535001E+00      0.1249852367E+01
          0                 2           2             4    7     1      -0.1062303799E-02       4    7    1        -0.5747552631E-01      0.1249833388E+00
          0                 3           1             4    7     1       0.7233892658E-04       4    7    1         0.4023286914E-02      0.8748648527E-02

    ------------------------------------------------
       NWT REQUIRED            3 OUTER ITERATIONS 
       AND A TOTAL OF          5 INNER ITERATIONS.
    ------------------------------------------------

 NO OUTPUT CONTROL FOR STRESS PERIOD   49   TIME STEP    6
 
 SOLVING FOR HEAD 
                                                   Max.-Head-Change                         Max.-Flux-Residual
  Residual-Control   Outer-Iter.   Inner-Iter.     Column Row Layer    Maximum-Head-Change  Column Row Layer    Maximum-Flux-Residual          L2-NORM 
          0                 1           2             4    7     1       0.1078254996E-01       4    7    1         0.5674387787E+00      0.1236733744E+01
          0                 2           2             4    7     1      -0.1048864685E-02       4    7    1        -0.5674404962E-01      0.1236988553E+00
          0                 3           1             4    7     1       0.7142377293E-04       4    7    1         0.3972083566E-02      0.8658763476E-02

    ------------------------------------------------
       NWT REQUIRED            3 OUTER ITERATIONS 
       AND A TOTAL OF          5 INNER ITERATIONS.
    ------------------------------------------------

 NO OUTPUT CONTROL FOR STRESS PERIOD   49   TIME STEP    7
 
 SOLVING FOR HEAD 
                                                   Max.-Head-Change                         Max.-Flux-Residual
  Residual-Control   Outer-Iter.   Inner-Iter.     Column Row Layer    Maximum-Head-Change  Column Row Layer    Maximum-Flux-Residual          L2-NORM 
          0                 1           2             4    7     1       0.1064645866E-01       4    7    1         0.5602450545E+00      0.1223814166E+01
          0                 2           2             4    7     1      -0.1035612596E-02       4    7    1        -0.5602467289E-01      0.1223798933E+00
          0                 3           1             4    7     1       0.7052135562E-04       4    7    1         0.3921727216E-02      0.8566472214E-02

    ------------------------------------------------
       NWT REQUIRED            3 OUTER ITERATIONS 
       AND A TOTAL OF          5 INNER ITERATIONS.
    ------------------------------------------------

 NO OUTPUT CONTROL FOR STRESS PERIOD   49   TIME STEP    8
 
 SOLVING FOR HEAD 
                                                   Max.-Head-Change                         Max.-Flux-Residual
  Residual-Control   Outer-Iter.   Inner-Iter.     Column Row Layer    Maximum-Head-Change  Column Row Layer    Maximum-Flux-Residual          L2-NORM 
          0                 1           2             4    7     1       0.1051285913E-01       4    7    1         0.5531822533E+00      0.1211081803E+01
          0                 2           2             4    7     1      -0.1022616942E-02       4    7    1        -0.5531838855E-01      0.1211067244E+00
          0                 3           1             4    7     1       0.6963640053E-04       4    7    1         0.3872287328E-02      0.8477272516E-02

    ------------------------------------------------
       NWT REQUIRED            3 OUTER ITERATIONS 
       AND A TOTAL OF          5 INNER ITERATIONS.
    ------------------------------------------------

 NO OUTPUT CONTROL FOR STRESS PERIOD   49   TIME STEP    9
 
 SOLVING FOR HEAD 
                                                   Max.-Head-Change                         Max.-Flux-Residual
  Residual-Control   Outer-Iter.   Inner-Iter.     Column Row Layer    Maximum-Head-Change  Column Row Layer    Maximum-Flux-Residual          L2-NORM 
          0                 1           2             4    7     1       0.1038154330E-01       4    7    1         0.5462405208E+00      0.1198558102E+01
          0                 2           2             4    7     1      -0.1009843431E-02       4    7    1        -0.5462421120E-01      0.1198545125E+00
          0                 3           1             4    7     1       0.6876657194E-04       4    7    1         0.3823694923E-02      0.8389666867E-02

    ------------------------------------------------
       NWT REQUIRED            3 OUTER ITERATIONS 
       AND A TOTAL OF          5 INNER ITERATIONS.
    ------------------------------------------------

 NO OUTPUT CONTROL FOR STRESS PERIOD   49   TIME STEP   10
 
 SOLVING FOR HEAD 
                                                   Max.-Head-Change                         Max.-Flux-Residual
  Residual-Control   Outer-Iter.   Inner-Iter.     Column Row Layer    Maximum-Head-Change  Column Row Layer    Maximum-Flux-Residual          L2-NORM 
          0                 1           2             4    7     1       0.1025233916E-01       4    7    1         0.5394098149E+00      0.1186251642E+01
          0                 2           2             4    7     1      -0.9972753322E-03       4    7    1        -0.5394113663E-01      0.1186239633E+00
          0                 3           1             4    7     1       0.6791073204E-04       4    7    1         0.3775879738E-02      0.8303555944E-02

    ------------------------------------------------
       NWT REQUIRED            3 OUTER ITERATIONS 
       AND A TOTAL OF          5 INNER ITERATIONS.
    ------------------------------------------------

 NO OUTPUT CONTROL FOR STRESS PERIOD   49   TIME STEP   11
 
 SOLVING FOR HEAD 
                                                   Max.-Head-Change                         Max.-Flux-Residual
  Residual-Control   Outer-Iter.   Inner-Iter.     Column Row Layer    Maximum-Head-Change  Column Row Layer    Maximum-Flux-Residual          L2-NORM 
          0                 1           2             4    7     1       0.1012560451E-01       4    7    1         0.5327107366E+00      0.1174149567E+01
          0                 2           2             4    7     1      -0.9849474492E-03       4    7    1        -0.5327122491E-01      0.1174139478E+00
          0                 3           1             4    7     1       0.6707124934E-04       4    7    1         0.3728985914E-02      0.8218917793E-02

    ------------------------------------------------
       NWT REQUIRED            3 OUTER ITERATIONS 
       AND A TOTAL OF          5 INNER ITERATIONS.
    ------------------------------------------------

 NO OUTPUT CONTROL FOR STRESS PERIOD   49   TIME STEP   12
 
 SOLVING FOR HEAD 
                                                   Max.-Head-Change                         Max.-Flux-Residual
  Residual-Control   Outer-Iter.   Inner-Iter.     Column Row Layer    Maximum-Head-Change  Column Row Layer    Maximum-Flux-Residual          L2-NORM 
          0                 1           2             4    7     1       0.1000074612E-01       4    7    1         0.5261101783E+00      0.1162244684E+01
          0                 2           2             4    7     1      -0.9728020764E-03       4    7    1        -0.5261116528E-01      0.1162234910E+00
          0                 3           1             4    7     1       0.6624419507E-04       4    7    1         0.3682781774E-02      0.8135563091E-02

    ------------------------------------------------
       NWT REQUIRED            3 OUTER ITERATIONS 
       AND A TOTAL OF          5 INNER ITERATIONS.
    ------------------------------------------------

 NO OUTPUT CONTROL FOR STRESS PERIOD   49   TIME STEP   13
 
 SOLVING FOR HEAD 
                                                   Max.-Head-Change                         Max.-Flux-Residual
  Residual-Control   Outer-Iter.   Inner-Iter.     Column Row Layer    Maximum-Head-Change  Column Row Layer    Maximum-Flux-Residual          L2-NORM 
          0                 1           2             4    7     1       0.9878007507E-02       4    7    1         0.5196216608E+00      0.1150548131E+01
          0                 2           2             4    7     1      -0.9608629010E-03       4    7    1        -0.5196230982E-01      0.1150539050E+00
          0                 3           1             4    7     1       0.6543118214E-04       4    7    1         0.3637361903E-02      0.8053670250E-02

    ------------------------------------------------
       NWT REQUIRED            3 OUTER ITERATIONS 
       AND A TOTAL OF          5 INNER ITERATIONS.
    ------------------------------------------------

 NO OUTPUT CONTROL FOR STRESS PERIOD   49   TIME STEP   14
 
 SOLVING FOR HEAD 
                                                   Max.-Head-Change                         Max.-Flux-Residual
  Residual-Control   Outer-Iter.   Inner-Iter.     Column Row Layer    Maximum-Head-Change  Column Row Layer    Maximum-Flux-Residual          L2-NORM 
          0                 1           2             4    7     1       0.9757614878E-02       4    7    1         0.5132578116E+00      0.1139047887E+01
          0                 2           2             4    7     1      -0.9491519281E-03       4    7    1        -0.5132592132E-01      0.1139039701E+00
          0                 3           1             4    7     1       0.6463370871E-04       4    7    1         0.3592814733E-02      0.7973218569E-02

    ------------------------------------------------
       NWT REQUIRED            3 OUTER ITERATIONS 
       AND A TOTAL OF          5 INNER ITERATIONS.
    ------------------------------------------------

 NO OUTPUT CONTROL FOR STRESS PERIOD   49   TIME STEP   15
 
 SOLVING FOR HEAD 
                                                   Max.-Head-Change                         Max.-Flux-Residual
  Residual-Control   Outer-Iter.   Inner-Iter.     Column Row Layer    Maximum-Head-Change  Column Row Layer    Maximum-Flux-Residual          L2-NORM 
          0                 1           2             4    7     1       0.9639237427E-02       4    7    1         0.5070008377E+00      0.1127731363E+01
          0                 2           2             4    7     1      -0.9376369784E-03       4    7    1        -0.5070022044E-01      0.1127723517E+00
          0                 3           1             4    7     1       0.6384958366E-04       4    7    1         0.3549015673E-02      0.7893986269E-02

    ------------------------------------------------
       NWT REQUIRED            3 OUTER ITERATIONS 
       AND A TOTAL OF          5 INNER ITERATIONS.
    ------------------------------------------------

 NO OUTPUT CONTROL FOR STRESS PERIOD   49   TIME STEP   16
 
 SOLVING FOR HEAD 
                                                   Max.-Head-Change                         Max.-Flux-Residual
  Residual-Control   Outer-Iter.   Inner-Iter.     Column Row Layer    Maximum-Head-Change  Column Row Layer    Maximum-Flux-Residual          L2-NORM 
          0                 1           2             4    7     1       0.9522833558E-02       4    7    1         0.5008483476E+00      0.1116591436E+01
          0                 2           2             4    7     1      -0.9263140055E-03       4    7    1        -0.5008496804E-01      0.1116584166E+00
          0                 3           1             4    7     1       0.6307853172E-04       4    7    1         0.3505948015E-02      0.7816010244E-02

    ------------------------------------------------
       NWT REQUIRED            3 OUTER ITERATIONS 
       AND A TOTAL OF          5 INNER ITERATIONS.
    ------------------------------------------------

 NO OUTPUT CONTROL FOR STRESS PERIOD   49   TIME STEP   17
 
 SOLVING FOR HEAD 
                                                   Max.-Head-Change                         Max.-Flux-Residual
  Residual-Control   Outer-Iter.   Inner-Iter.     Column Row Layer    Maximum-Head-Change  Column Row Layer    Maximum-Flux-Residual          L2-NORM 
          0                 1           2             4    7     1       0.9408096926E-02       4    7    1         0.4947834231E+00      0.1105639951E+01
          0                 2           2             4    7     1      -0.9151532104E-03       4    7    1        -0.4947847226E-01      0.1105633004E+00
          0                 3           1             4    7     1       0.6231852320E-04       4    7    1         0.3463493312E-02      0.7739363667E-02

    ------------------------------------------------
       NWT REQUIRED            3 OUTER ITERATIONS 
       AND A TOTAL OF          5 INNER ITERATIONS.
    ------------------------------------------------

 NO OUTPUT CONTROL FOR STRESS PERIOD   49   TIME STEP   18
 
 SOLVING FOR HEAD 
                                                   Max.-Head-Change                         Max.-Flux-Residual
  Residual-Control   Outer-Iter.   Inner-Iter.     Column Row Layer    Maximum-Head-Change  Column Row Layer    Maximum-Flux-Residual          L2-NORM 
          0                 1           2             4    7     1       0.9295809699E-02       4    7    1         0.4888492280E+00      0.1094866484E+01
          0                 2           2             4    7     1      -0.9042306777E-03       4    7    1        -0.4888504957E-01      0.1094859972E+00
          0                 3           1             4    7     1       0.6157473981E-04       4    7    1         0.3421953744E-02      0.7663964141E-02

    ------------------------------------------------
       NWT REQUIRED            3 OUTER ITERATIONS 
       AND A TOTAL OF          5 INNER ITERATIONS.
    ------------------------------------------------

 NO OUTPUT CONTROL FOR STRESS PERIOD   49   TIME STEP   19
 
 SOLVING FOR HEAD 
                                                   Max.-Head-Change                         Max.-Flux-Residual
  Residual-Control   Outer-Iter.   Inner-Iter.     Column Row Layer    Maximum-Head-Change  Column Row Layer    Maximum-Flux-Residual          L2-NORM 
          0                 1           2             4    7     1       0.9185099774E-02       4    7    1         0.4829977449E+00      0.1084273410E+01
          0                 2           2             4    7     1      -0.8934615744E-03       4    7    1        -0.4829989810E-01      0.1084267399E+00
          0                 3           1             4    7     1       0.6084140460E-04       4    7    1         0.3380993165E-02      0.7589810479E-02

    ------------------------------------------------
       NWT REQUIRED            3 OUTER ITERATIONS 
       AND A TOTAL OF          5 INNER ITERATIONS.
    ------------------------------------------------

 NO OUTPUT CONTROL FOR STRESS PERIOD   49   TIME STEP   20
 
 SOLVING FOR HEAD 
                                                   Max.-Head-Change                         Max.-Flux-Residual
  Residual-Control   Outer-Iter.   Inner-Iter.     Column Row Layer    Maximum-Head-Change  Column Row Layer    Maximum-Flux-Residual          L2-NORM 
          0                 1           2             4    7     1       0.9076208257E-02       4    7    1         0.4772428048E+00      0.1073834753E+01
          0                 2           2             4    7     1      -0.8828693540E-03       4    7    1        -0.4772440105E-01      0.1073828727E+00
          0                 3           1             4    7     1       0.6012011393E-04       4    7    1         0.3340708375E-02      0.7516736860E-02

    ------------------------------------------------
       NWT REQUIRED            3 OUTER ITERATIONS 
       AND A TOTAL OF          5 INNER ITERATIONS.
    ------------------------------------------------

 NO OUTPUT CONTROL FOR STRESS PERIOD   49   TIME STEP   21
 
 SOLVING FOR HEAD 
                                                   Max.-Head-Change                         Max.-Flux-Residual
  Residual-Control   Outer-Iter.   Inner-Iter.     Column Row Layer    Maximum-Head-Change  Column Row Layer    Maximum-Flux-Residual          L2-NORM 
          0                 1           2             4    7     1       0.8969370748E-02       4    7    1         0.4715969092E+00      0.1063579066E+01
          0                 2           2             4    7     1      -0.8724769338E-03       4    7    1        -0.4715980854E-01      0.1063573131E+00
          0                 3           1             4    7     1       0.5941242913E-04       4    7    1         0.3301186917E-02      0.7444941996E-02

    ------------------------------------------------
       NWT REQUIRED            3 OUTER ITERATIONS 
       AND A TOTAL OF          5 INNER ITERATIONS.
    ------------------------------------------------

 NO OUTPUT CONTROL FOR STRESS PERIOD   49   TIME STEP   22
 
 SOLVING FOR HEAD 
                                                   Max.-Head-Change                         Max.-Flux-Residual
  Residual-Control   Outer-Iter.   Inner-Iter.     Column Row Layer    Maximum-Head-Change  Column Row Layer    Maximum-Flux-Residual          L2-NORM 
          0                 1           2             4    7     1       0.8864268170E-02       4    7    1         0.4660427483E+00      0.1053477137E+01
          0                 2           2             4    7     1      -0.8622532761E-03       4    7    1        -0.4660438957E-01      0.1053471947E+00
          0                 3           1             4    7     1       0.5871623625E-04       4    7    1         0.3262307592E-02      0.7374269255E-02

    ------------------------------------------------
       NWT REQUIRED            3 OUTER ITERATIONS 
       AND A TOTAL OF          5 INNER ITERATIONS.
    ------------------------------------------------

 NO OUTPUT CONTROL FOR STRESS PERIOD   49   TIME STEP   23
 
 SOLVING FOR HEAD 
                                                   Max.-Head-Change                         Max.-Flux-Residual
  Residual-Control   Outer-Iter.   Inner-Iter.     Column Row Layer    Maximum-Head-Change  Column Row Layer    Maximum-Flux-Residual          L2-NORM 
          0                 1           2             4    7     1       0.8760861474E-02       4    7    1         0.4605785409E+00      0.1043528779E+01
          0                 2           2             4    7     1      -0.8521945827E-03       4    7    1        -0.4605796602E-01      0.1043523606E+00
          0                 3           1             4    7     1       0.5803127682E-04       4    7    1         0.3224057950E-02      0.7304604391E-02

    ------------------------------------------------
       NWT REQUIRED            3 OUTER ITERATIONS 
       AND A TOTAL OF          5 INNER ITERATIONS.
    ------------------------------------------------

 NO OUTPUT CONTROL FOR STRESS PERIOD   49   TIME STEP   24
 
 SOLVING FOR HEAD 
                                                   Max.-Head-Change                         Max.-Flux-Residual
  Residual-Control   Outer-Iter.   Inner-Iter.     Column Row Layer    Maximum-Head-Change  Column Row Layer    Maximum-Flux-Residual          L2-NORM 
          0                 1           2             4    7     1       0.8659119473E-02       4    7    1         0.4552022625E+00      0.1033741429E+01
          0                 2           2             4    7     1      -0.8422978199E-03       4    7    1        -0.4552033545E-01      0.1033736464E+00
          0                 3           1             4    7     1       0.5735734447E-04       4    7    1         0.3186423821E-02      0.7236113484E-02

    ------------------------------------------------
       NWT REQUIRED            3 OUTER ITERATIONS 
       AND A TOTAL OF          5 INNER ITERATIONS.
    ------------------------------------------------

 NO OUTPUT CONTROL FOR STRESS PERIOD   49   TIME STEP   25
 
 SOLVING FOR HEAD 
                                                   Max.-Head-Change                         Max.-Flux-Residual
  Residual-Control   Outer-Iter.   Inner-Iter.     Column Row Layer    Maximum-Head-Change  Column Row Layer    Maximum-Flux-Residual          L2-NORM 
          0                 1           2             4    7     1       0.8559005992E-02       4    7    1         0.4499122960E+00      0.1024101099E+01
          0                 2           2             4    7     1      -0.8325594687E-03       4    7    1        -0.4499133613E-01      0.1024096331E+00
          0                 3           1             4    7     1       0.5669419921E-04       4    7    1         0.3149393896E-02      0.7168631247E-02

    ------------------------------------------------
       NWT REQUIRED            3 OUTER ITERATIONS 
       AND A TOTAL OF          5 INNER ITERATIONS.
    ------------------------------------------------

 NO OUTPUT CONTROL FOR STRESS PERIOD   49   TIME STEP   26
 
 SOLVING FOR HEAD 
                                                   Max.-Head-Change                         Max.-Flux-Residual
  Residual-Control   Outer-Iter.   Inner-Iter.     Column Row Layer    Maximum-Head-Change  Column Row Layer    Maximum-Flux-Residual          L2-NORM 
          0                 1           2             4    7     1       0.8460610857E-02       4    7    1         0.4447215301E+00      0.1148626370E+01
          0                 2           2             4    7     1      -0.8229882676E-03       4    7    1        -0.4447225706E-01      0.1145013562E+00
          0                 3           1             4    7     1       0.5604243534E-04       4    7    1         0.3113058350E-02      0.7981927764E-02

    ------------------------------------------------
       NWT REQUIRED            3 OUTER ITERATIONS 
       AND A TOTAL OF          5 INNER ITERATIONS.
    ------------------------------------------------

 NO OUTPUT CONTROL FOR STRESS PERIOD   49   TIME STEP   27
 
 SOLVING FOR HEAD 
                                                   Max.-Head-Change                         Max.-Flux-Residual
  Residual-Control   Outer-Iter.   Inner-Iter.     Column Row Layer    Maximum-Head-Change  Column Row Layer    Maximum-Flux-Residual          L2-NORM 
          0                 1           2             4    7     1       0.8363773764E-02       4    7    1         0.4396050914E+00      0.1007083960E+01
          0                 2           2             4    7     1      -0.8135686222E-03       4    7    1        -0.4396061067E-01      0.1007080015E+00
          0                 3           1             4    7     1       0.5540099350E-04       4    7    1         0.3077243108E-02      0.7049517378E-02

    ------------------------------------------------
       NWT REQUIRED            3 OUTER ITERATIONS 
       AND A TOTAL OF          5 INNER ITERATIONS.
    ------------------------------------------------

 NO OUTPUT CONTROL FOR STRESS PERIOD   49   TIME STEP   28
 
 SOLVING FOR HEAD 
                                                   Max.-Head-Change                         Max.-Flux-Residual
  Residual-Control   Outer-Iter.   Inner-Iter.     Column Row Layer    Maximum-Head-Change  Column Row Layer    Maximum-Flux-Residual          L2-NORM 
          0                 1           2             4    7     1       0.8268724037E-02       4    7    1         0.4345842021E+00      0.9978667526E+00
          0                 2           2             4    7     1      -0.8062755592E-03       4    7    1        -0.4358385716E-01      0.9982988992E-01
          0                 3           1             4    7     1       0.5490436138E-04       4    7    1         0.3050870228E-02      0.6988055512E-02

    ------------------------------------------------
       NWT REQUIRED            3 OUTER ITERATIONS 
       AND A TOTAL OF          5 INNER ITERATIONS.
    ------------------------------------------------

 NO OUTPUT CONTROL FOR STRESS PERIOD   49   TIME STEP   29
 
 SOLVING FOR HEAD 
                                                   Max.-Head-Change                         Max.-Flux-Residual
  Residual-Control   Outer-Iter.   Inner-Iter.     Column Row Layer    Maximum-Head-Change  Column Row Layer    Maximum-Flux-Residual          L2-NORM 
          0                 1           2             4    7     1       0.8170391575E-02       4    7    1         0.4295223084E+00      0.9887555542E+00
          0                 2           2             4    7     1      -0.7947579474E-03       4    7    1        -0.4295234219E-01      0.9887514697E-01
          0                 3           1             4    7     1       0.5412005480E-04       4    7    1         0.3006664192E-02      0.6921211085E-02

    ------------------------------------------------
       NWT REQUIRED            3 OUTER ITERATIONS 
       AND A TOTAL OF          5 INNER ITERATIONS.
    ------------------------------------------------

 NO OUTPUT CONTROL FOR STRESS PERIOD   49   TIME STEP   30



 STREAM LISTING     PERIOD     49   STEP       30

 LAYER ROW COL. STREAM  RCH.  FLOW INTO     FLOW TO   FLOW OUT OF   OVRLND.     DIRECT     STREAM       STREAM     STREAM     STREAM   STREAMBED  STREAMBED
                SEG.NO.  NO.  STRM. RCH.    AQUIFER    STRM. RCH.    RUNOFF     PRECIP       ET          HEAD       DEPTH      WIDTH   CONDCTNC.   GRADIENT

   1    1    1     1     1    1.4250E+01  1.8169E-01   1.4068E+01  0.000E+00  0.000E+00  0.000E+00  1.09404E+03  9.953E-01  1.011E+01  4.547E-02  1.332E+00
   1    2    2     1     2    1.4068E+01  2.7999E-01   1.3788E+01  0.000E+00  0.000E+00  0.000E+00  1.08905E+03  9.906E-01  1.002E+01  7.016E-02  1.330E+00
   1    3    3     1     3    1.3788E+01  2.3745E-01   1.3551E+01  0.000E+00  0.000E+00  0.000E+00  1.08340E+03  9.852E-01  9.930E+00  5.958E-02  1.328E+00
   1    3    4     1     4    1.3551E+01  2.1755E-01   1.3333E+01  0.000E+00  0.000E+00  0.000E+00  1.07839E+03  9.805E-01  9.848E+00  5.465E-02  1.327E+00
   1    4    5     2     1    1.1333E+01  2.9214E-01   1.1041E+01  0.000E+00  0.000E+00  0.000E+00  1.07268E+03  7.454E-01  1.200E+01  7.800E-02  1.248E+00
   1    5    6     2     2    1.1041E+01  2.2410E-01   1.0817E+01  0.000E+00  0.000E+00  0.000E+00  1.06724E+03  7.350E-01  1.200E+01  6.000E-02  1.245E+00
   1    6    6     2     3    1.0817E+01  2.2356E-01   1.0594E+01  0.000E+00  0.000E+00  0.000E+00  1.06252E+03  7.259E-01  1.200E+01  6.000E-02  1.242E+00
   1    7    6     2     4    1.0594E+01  2.2301E-01   1.0371E+01  0.000E+00  0.000E+00  0.000E+00  1.05779E+03  7.168E-01  1.200E+01  6.000E-02  1.239E+00
   1    8    6     2     5    1.0371E+01  2.2246E-01   1.0148E+01  0.000E+00  0.000E+00  0.000E+00  1.05307E+03  7.076E-01  1.200E+01  6.000E-02  1.236E+00
   1    3    5     3     1    2.0000E+00  2.8252E-01   1.7175E+00  0.000E+00  0.000E+00  0.000E+00  1.07555E+03  1.909E+00  9.636E+00  7.227E-02  1.955E+00
   1    3    6     3     2    1.7175E+00  2.4905E-01   1.4684E+00  0.000E+00  0.000E+00  0.000E+00  1.07264E+03  1.727E+00  8.909E+00  6.682E-02  1.864E+00
   1    3    7     3     3    1.4684E+00  1.9718E-01   1.2712E+00  0.000E+00  0.000E+00  0.000E+00  1.06987E+03  1.555E+00  8.218E+00  5.547E-02  1.777E+00
   1    4    8     3     4    1.2712E+00  2.2567E-01   1.0456E+00  0.000E+00  0.000E+00  0.000E+00  1.06682E+03  1.364E+00  7.455E+00  6.709E-02  1.682E+00
   1    5    8     3     5    1.0456E+00  1.5790E-01   8.8768E-01  0.000E+00  0.000E+00  0.000E+00  1.06362E+03  1.164E+00  6.655E+00  4.991E-02  1.582E+00
   1    6    8     3     6    8.8768E-01  5.5980E-02   8.3170E-01  0.000E+00  0.000E+00  0.000E+00  1.06158E+03  1.036E+00  6.145E+00  1.844E-02  1.518E+00
   1    5   10     4     1    1.0000E+01  9.0919E-02   9.9091E+00  0.000E+00  0.000E+00  0.000E+00  1.07836E+03  6.368E-01  1.000E+01  2.500E-02  1.212E+00
   1    5    9     4     2    9.9091E+00  1.8158E-01   9.7275E+00  0.000E+00  0.000E+00  0.000E+00  1.07154E+03  6.315E-01  1.000E+01  5.000E-02  1.211E+00
   1    6    8     4     3    9.7275E+00  1.2689E-01   9.6006E+00  0.000E+00  0.000E+00  0.000E+00  1.06381E+03  6.256E-01  1.000E+01  3.500E-02  1.209E+00
   1    6    8     5     1    1.0432E+01  2.2686E-01   1.0205E+01  0.000E+00  0.000E+00  0.000E+00  1.05868E+03  6.790E-01  1.542E+01  6.166E-02  1.226E+00
   1    7    7     5     2    1.0205E+01  2.7894E-01   9.9265E+00  0.000E+00  0.000E+00  0.000E+00  1.05417E+03  6.732E-01  1.519E+01  7.594E-02  1.224E+00
   1    8    7     5     3    9.9265E+00  1.9221E-01   9.7343E+00  0.000E+00  0.000E+00  0.000E+00  1.04992E+03  6.676E-01  1.497E+01  5.241E-02  1.223E+00
   1    8    6     5     4    9.7343E+00  1.3577E-01   9.5985E+00  0.000E+00  0.000E+00  0.000E+00  1.04691E+03  6.637E-01  1.482E+01  3.706E-02  1.221E+00
   1    9    6     6     1    1.9747E+01  2.4336E-01   1.9503E+01  0.000E+00  0.000E+00  0.000E+00  1.04378E+03  1.056E+00  1.200E+01  6.000E-02  1.352E+00
   1   10    7     6     2    1.9503E+01  2.4289E-01   1.9260E+01  0.000E+00  0.000E+00  0.000E+00  1.03923E+03  1.048E+00  1.200E+01  6.000E-02  1.349E+00
   1   11    7     6     3    1.9260E+01  2.4241E-01   1.9018E+01  0.000E+00  0.000E+00  0.000E+00  1.03468E+03  1.040E+00  1.200E+01  6.000E-02  1.347E+00
   1   12    7     6     4    1.9018E+01  2.4194E-01   1.8776E+01  0.000E+00  0.000E+00  0.000E+00  1.03012E+03  1.032E+00  1.200E+01  6.000E-02  1.344E+00
   1   13    7     6     5    1.8776E+01 -1.8843E-02   1.8795E+01  0.000E+00  0.000E+00  0.000E+00  1.02694E+03  1.029E+00  1.200E+01  2.400E-01 -2.617E-02
   1   14    9     7     1    1.5000E+02  1.3456E+00   1.4865E+02  0.000E+00  0.000E+00  0.000E+00  1.03987E+03  2.288E+00  5.529E+01  5.593E-01  8.020E-01
   1   13    8     7     2    1.4865E+02  1.8554E+00   1.4680E+02  0.000E+00  0.000E+00  0.000E+00  1.03478E+03  2.279E+00  5.526E+01  6.148E-01  1.006E+00
   1   13    7     7     3    1.4680E+02  1.4929E+00   1.4531E+02  0.000E+00  0.000E+00  0.000E+00  1.02969E+03  2.270E+00  5.522E+01  5.584E-01  8.911E-01
   1   13    6     8     1    1.6410E+02  9.1057E-01   1.6319E+02  0.000E+00  0.000E+00  0.000E+00  1.02479E+03  2.910E+00  4.220E+01  4.300E-01  7.058E-01
   1   13    5     8     2    1.6319E+02  1.6822E-01   1.6302E+02  0.000E+00  0.000E+00  0.000E+00  1.01853E+03  2.907E+00  4.215E+01  4.295E-01  1.306E-01
   1   13    4     8     3    1.6302E+02 -2.4553E+00   1.6548E+02  0.000E+00  0.000E+00  0.000E+00  1.01229E+03  2.914E+00  4.226E+01  4.306E+00 -1.901E-01
   1   13    3     8     4    1.6548E+02 -3.6494E+00   1.6913E+02  0.000E+00  0.000E+00  0.000E+00  1.00606E+03  2.935E+00  4.255E+01  4.336E+00 -2.805E-01
   1   13    2     8     5    1.6913E+02 -2.5745E+00   1.7170E+02  0.000E+00  0.000E+00  0.000E+00  9.99830E+02  2.955E+00  4.285E+01  4.366E+00 -1.966E-01
   1   13    1     8     6    1.7170E+02 -1.9816E+00   1.7368E+02  0.000E+00  0.000E+00  0.000E+00  9.94845E+02  2.970E+00  4.306E+01  2.633E+00 -2.509E-01
   1    8    6     9     1    0.0000E+00  0.0000E+00   0.0000E+00  0.000E+00  0.000E+00  0.000E+00  1.07875E+03  0.000E+00  4.000E+00  0.000E+00  1.000E+00
   1    8    5     9     2    0.0000E+00  0.0000E+00   0.0000E+00  0.000E+00  0.000E+00  0.000E+00  1.07825E+03  0.000E+00  4.000E+00  0.000E+00  1.000E+00





UNSATURATED ZONE PACKAGE VOLUMETRIC BUDGET FOR  TIME STEP    30 STRESS PERIOD   49
  ------------------------------------------------------------------------------



     CUMULATIVE VOLUMES      L**3       RATES FOR THIS TIME STEP      L**3/T
     ------------------                 ------------------------

           IN:                                      IN:
           ---                                      ---
        INFILTRATION =  2143990201.1096          INFILTRATION =           4.4075

          OUT:                                     OUT:
          ----                                     ----
              UZF ET =  1987967105.1094                UZF ET =           0.7250
        UZF RECHARGE =     1883440.3295          UZF RECHARGE =       0.0000E+00

            IN - OUT =   154139655.6707              IN - OUT =           3.6825

          STORAGE:                                 STORAGE:
          --------                                 --------
      STORAGE CHANGE =   154141482.2070        STORAGE CHANGE =           3.6825

 PERCENT DISCREPANCY IS DIFFERENCE BETWEEN IN-OUT MINUS CHANGE IN STORAGE
 DIVIDED BY THE AVERAGE OF IN AND OUT TIMES 100

 PERCENT DISCREPANCY =          -0.00     PERCENT DISCREPANCY =           0.00






1
  VOLUMETRIC BUDGET FOR ENTIRE MODEL AT END OF TIME STEP   30, STRESS PERIOD  49
  ------------------------------------------------------------------------------

     CUMULATIVE VOLUMES      L**3       RATES FOR THIS TIME STEP      L**3/T
     ------------------                 ------------------------

           IN:                                      IN:
           ---                                      ---
               AG WELLS  =   351308352.0000                 AG WELLS  =           0.0000
      DIVERSION SEGMENTS =  1236186240.0000        DIVERSION SEGMENTS =           0.0000
           GW IRRIGATION =           0.0000             GW IRRIGATION =           0.0000
           SW IRRIGATION =           0.0000             SW IRRIGATION =           0.0000
        SYSTEM LOSSES GW =           0.0000          SYSTEM LOSSES GW =           0.0000
        SYSTEM LOSSES SW =           0.0000          SYSTEM LOSSES SW =           0.0000

                TOTAL IN =  1587494656.0000                  TOTAL IN =           0.0000

          OUT:                                     OUT:
          ----                                     ----
               AG WELLS  =           0.0000                 AG WELLS  =           0.0000
      DIVERSION SEGMENTS =           0.0000        DIVERSION SEGMENTS =           0.0000
           GW IRRIGATION =   351308352.0000             GW IRRIGATION =           0.0000
           SW IRRIGATION =  1236208512.0000             SW IRRIGATION =           0.0000
        SYSTEM LOSSES GW =           0.0000          SYSTEM LOSSES GW =           0.0000
        SYSTEM LOSSES SW =           0.0000          SYSTEM LOSSES SW =           0.0000

               TOTAL OUT =  1587516928.0000                 TOTAL OUT =           0.0000

                IN - OUT =      -22272.0000                  IN - OUT =           0.0000

     PERCENT DISCREPANCY =          -0.00         PERCENT DISCREPANCY =           0.00



1
  VOLUMETRIC BUDGET FOR ENTIRE MODEL AT END OF TIME STEP   30, STRESS PERIOD  49
  ------------------------------------------------------------------------------

     CUMULATIVE VOLUMES      L**3       RATES FOR THIS TIME STEP      L**3/T
     ------------------                 ------------------------

           IN:                                      IN:
           ---                                      ---
             STORAGE     =   574716736.0000               STORAGE     =           2.6697
       CONSTANT HEAD     =           0.0000         CONSTANT HEAD     =           0.0000
     HEAD DEP BOUNDS     =    36123944.0000       HEAD DEP BOUNDS     =           0.2864
      STREAM LEAKAGE     =  1504945024.0000        STREAM LEAKAGE     =          11.2467
        UZF RECHARGE     =     1883440.3750          UZF RECHARGE     =           0.0000
               GW ET     =           0.0000                 GW ET     =           0.0000
     SURFACE LEAKAGE     =           0.0000       SURFACE LEAKAGE     =           0.0000
           AG WELLS      =           0.0000             AG WELLS      =           0.0000

                TOTAL IN =  2117669120.0000                  TOTAL IN =          14.2028

          OUT:                                     OUT:
          ----                                     ----
             STORAGE     =   361977600.0000               STORAGE     =           3.2346
       CONSTANT HEAD     =           0.0000         CONSTANT HEAD     =           0.0000
     HEAD DEP BOUNDS     =    36705432.0000       HEAD DEP BOUNDS     =           0.2887
      STREAM LEAKAGE     =  1363902336.0000        STREAM LEAKAGE     =          10.6797
        UZF RECHARGE     =           0.0000          UZF RECHARGE     =           0.0000
               GW ET     =     3779571.7500                 GW ET     =           0.0000
     SURFACE LEAKAGE     =           0.0000       SURFACE LEAKAGE     =           0.0000
           AG WELLS      =   351308352.0000             AG WELLS      =           0.0000

               TOTAL OUT =  2117673216.0000                 TOTAL OUT =          14.2030

                IN - OUT =       -4096.0000                  IN - OUT =      -1.5736E-04

     PERCENT DISCREPANCY =          -0.00         PERCENT DISCREPANCY =          -0.00






         TIME SUMMARY AT END OF TIME STEP   30 IN STRESS PERIOD   49
                    SECONDS     MINUTES      HOURS       DAYS        YEARS
                    -----------------------------------------------------------
   TIME STEP LENGTH  87667.      1461.1      24.352      1.0147     2.77799E-03
 STRESS PERIOD TIME 2.63000E+06  43833.      730.56      30.440     8.33397E-02
         TOTAL TIME 1.26325E+08 2.10542E+06  35090.      1462.1      4.0030    
1


 Run end date and time (yyyy/mm/dd hh:mm:ss): 2019/06/10  7:59:17
 Elapsed run time: 11.045 Seconds

