                                  MODFLOW-NWT-SWR1 
      U.S. GEOLOGICAL SURVEY MODULAR FINITE-DIFFERENCE GROUNDWATER-FLOW MODEL
                            VERSION 1.1.4, 4/01/2018
                    BASED ON MODFLOW-2005 VERSION 1.11.00 08/08/2013

 LIST FILE: Agwater1.lst
                         UNIT    9

 OPENING Agwater1.ba6
 FILE TYPE:BAS6   UNIT   75   STATUS:OLD    
 FORMAT:FORMATTED              ACCESS:SEQUENTIAL          

 OPENING Agwater1.upw
 FILE TYPE:UPW   UNIT    7   STATUS:OLD    
 FORMAT:FORMATTED              ACCESS:SEQUENTIAL          

 OPENING Agwater1.dis
 FILE TYPE:DIS   UNIT    8   STATUS:OLD    
 FORMAT:FORMATTED              ACCESS:SEQUENTIAL          

 OPENING Agwater1.nwt
 FILE TYPE:NWT   UNIT   13   STATUS:OLD    
 FORMAT:FORMATTED              ACCESS:SEQUENTIAL          

 OPENING Agwater1.oc
 FILE TYPE:OC   UNIT   14   STATUS:OLD    
 FORMAT:FORMATTED              ACCESS:SEQUENTIAL          

 OPENING Agwater1.sfr
 FILE TYPE:SFR   UNIT   15   STATUS:OLD    
 FORMAT:FORMATTED              ACCESS:SEQUENTIAL          

 OPENING Agwater1.ghb
 FILE TYPE:GHB   UNIT   17   STATUS:OLD    
 FORMAT:FORMATTED              ACCESS:SEQUENTIAL          

 OPENING Agwater1.uzf
 FILE TYPE:UZF   UNIT   19   STATUS:OLD    
 FORMAT:FORMATTED              ACCESS:SEQUENTIAL          

 OPENING Agwater1.gag
 FILE TYPE:GAGE   UNIT   32   STATUS:OLD    
 FORMAT:FORMATTED              ACCESS:SEQUENTIAL          

 OPENING seg1.tab
 FILE TYPE:DATA   UNIT   55   STATUS:UNKNOWN
 FORMAT:FORMATTED              ACCESS:SEQUENTIAL          

 OPENING seg9.tab
 FILE TYPE:DATA   UNIT   56   STATUS:UNKNOWN
 FORMAT:FORMATTED              ACCESS:SEQUENTIAL          

 OPENING Agwater1.awu
 FILE TYPE:AWU   UNIT   57   STATUS:OLD    
 FORMAT:FORMATTED              ACCESS:SEQUENTIAL          

 OPENING Agwater1.hed
 FILE TYPE:DATA   UNIT   62   STATUS:UNKNOWN
 FORMAT:FORMATTED              ACCESS:SEQUENTIAL          

 OPENING Agwater1.ts9
 FILE TYPE:DATA   UNIT  105   STATUS:UNKNOWN
 FORMAT:FORMATTED              ACCESS:SEQUENTIAL          

 OPENING Agwater1.ts5
 FILE TYPE:DATA   UNIT  106   STATUS:UNKNOWN
 FORMAT:FORMATTED              ACCESS:SEQUENTIAL          

 OPENING Agwater1.uzfot
 FILE TYPE:DATA(BINARY)   UNIT   61   STATUS:UNKNOWN
 FORMAT:BINARY                 ACCESS:SEQUENTIAL          

 OPENING Agwater1cbc.unf
 FILE TYPE:DATA(BINARY)   UNIT  102   STATUS:UNKNOWN
 FORMAT:BINARY                 ACCESS:SEQUENTIAL          

 OPENING welllist.unf
 FILE TYPE:DATA(BINARY)   UNIT  103   STATUS:UNKNOWN
 FORMAT:BINARY                 ACCESS:SEQUENTIAL          

 OPENING wellirrlist.unf
 FILE TYPE:DATA(BINARY)   UNIT  104   STATUS:UNKNOWN
 FORMAT:BINARY                 ACCESS:SEQUENTIAL          

 OPENING Agwater1.uzf1
 FILE TYPE:DATA   UNIT   65   STATUS:UNKNOWN
 FORMAT:FORMATTED              ACCESS:SEQUENTIAL          

 OPENING Agwater1.uzf2
 FILE TYPE:DATA   UNIT   66   STATUS:UNKNOWN
 FORMAT:FORMATTED              ACCESS:SEQUENTIAL          

 OPENING Agwater1.uzf3
 FILE TYPE:DATA   UNIT   67   STATUS:UNKNOWN
 FORMAT:FORMATTED              ACCESS:SEQUENTIAL          

 OPENING Agwater1.uzf4
 FILE TYPE:DATA   UNIT   68   STATUS:UNKNOWN
 FORMAT:FORMATTED              ACCESS:SEQUENTIAL          

 OPENING Agwater1.flw
 FILE TYPE:DATA   UNIT   81   STATUS:UNKNOWN
 FORMAT:FORMATTED              ACCESS:SEQUENTIAL          

 OPENING Agwater1.sg1
 FILE TYPE:DATA   UNIT   83   STATUS:UNKNOWN
 FORMAT:FORMATTED              ACCESS:SEQUENTIAL          

 OPENING Agwater1.sg2
 FILE TYPE:DATA   UNIT   84   STATUS:UNKNOWN
 FORMAT:FORMATTED              ACCESS:SEQUENTIAL          

 OPENING Agwater1.sg3
 FILE TYPE:DATA   UNIT   85   STATUS:UNKNOWN
 FORMAT:FORMATTED              ACCESS:SEQUENTIAL          

 OPENING Agwater1.sg4
 FILE TYPE:DATA   UNIT   86   STATUS:UNKNOWN
 FORMAT:FORMATTED              ACCESS:SEQUENTIAL          

 OPENING Agwater1.sg5
 FILE TYPE:DATA   UNIT   87   STATUS:UNKNOWN
 FORMAT:FORMATTED              ACCESS:SEQUENTIAL          

 OPENING Agwater1.sg6
 FILE TYPE:DATA   UNIT   88   STATUS:UNKNOWN
 FORMAT:FORMATTED              ACCESS:SEQUENTIAL          

 OPENING Agwater1.sg7
 FILE TYPE:DATA   UNIT   89   STATUS:UNKNOWN
 FORMAT:FORMATTED              ACCESS:SEQUENTIAL          

 OPENING Agwater1.sg8
 FILE TYPE:DATA   UNIT   90   STATUS:UNKNOWN
 FORMAT:FORMATTED              ACCESS:SEQUENTIAL          

 OPENING Agwater1.sg9
 FILE TYPE:DATA   UNIT   91   STATUS:UNKNOWN
 FORMAT:FORMATTED              ACCESS:SEQUENTIAL          

 BAS -- BASIC PACKAGE, VERSION 1.1.4, 4/01/2018 INPUT READ FROM UNIT   75
 
 MODFLOW was compiled using mixed precision
 Precision of REAL variables:           6
 Precision of DOUBLE PRECISION variables:          15

 DISCRETIZATION INPUT DATA READ FROM UNIT    8
 #Test problem 2-- Discretization input
 #Example problem using the UZF1 Package
    1 LAYERS        15 ROWS        10 COLUMNS
   25 STRESS PERIOD(S) IN SIMULATION
 MODEL TIME UNIT IS SECONDS
 MODEL LENGTH UNIT IS FEET
  Confining bed flag for each layer:
   0

                     DELR =   5000.00    

                     DELC =   5000.00    



           TOP ELEVATION OF LAYER 1
 READING ON UNIT    8 WITH FORMAT: (10F7.0)            

            1           2           3           4           5           6           7           8           9          10
 ........................................................................................................................
   1    1105.       1105.       0.000       0.000       0.000       0.000       0.000       0.000       0.000       0.000    
   2    1105.       1095.       1105.       0.000       0.000       1100.       1100.       1110.       0.000       0.000    
   3    0.000       1100.       1085.       1080.       1078.       1076.       1073.       1090.       0.000       0.000    
   4    1110.       1100.       1090.       1085.       1076.       1080.       1080.       1070.       1100.       0.000    
   5    1110.       1100.       1085.       1080.       1078.       1074.       1077.       1066.       1075.       1080.    
   6    1105.       1095.       1080.       1077.       1073.       1069.       1070.       1063.       1085.       1095.    
   7    1105.       1090.       1075.       1072.       1070.       1065.       1065.       1069.       1090.       0.000    
   8    0.000       1080.       1070.       1068.       1063.       1060.       1063.       1067.       1090.       0.000    
   9    0.000       1075.       1065.       1062.       1058.       1052.       1055.       1065.       1090.       0.000    
  10    0.000       1070.       1060.       1055.       1046.       1046.       1044.       1060.       1088.       1100.    
  11    0.000       1055.       1050.       1045.       1041.       1042.       1040.       1050.       1075.       0.000    
  12    1027.       1028.       1028.       1032.       1032.       1033.       1032.       1040.       1060.       0.000    
  13    997.0       1004.       1008.       1014.       1020.       1027.       1032.       1038.       1050.       0.000    
  14    0.000       1030.       1040.       1045.       1050.       1050.       1050.       1050.       1044.       0.000    
  15    0.000       0.000       1080.       1080.       1080.       1080.       0.000       0.000       0.000       0.000    



             MODEL LAYER BOTTOM EL. FOR LAYER   1
 READING ON UNIT    8 WITH FORMAT: (10F7.0)            

            1           2           3           4           5           6           7           8           9          10
 ........................................................................................................................
   1    1000.       1000.       0.000       0.000       0.000       0.000       0.000       0.000       0.000       0.000    
   2    1000.       900.0       900.0       0.000       0.000       950.0       950.0       950.0       0.000       0.000    
   3    0.000       850.0       670.0       680.0       680.0       770.0       770.0       890.0       0.000       0.000    
   4    925.0       850.0       650.0       650.0       650.0       680.0       740.0       850.0       950.0       0.000    
   5    925.0       800.0       650.0       600.0       600.0       600.0       650.0       720.0       850.0       950.0    
   6    925.0       800.0       650.0       600.0       550.0       600.0       650.0       720.0       850.0       970.0    
   7    925.0       800.0       650.0       600.0       550.0       600.0       650.0       720.0       950.0       0.000    
   8    0.000       850.0       700.0       650.0       570.0       600.0       700.0       850.0       950.0       0.000    
   9    0.000       850.0       700.0       650.0       540.0       580.0       700.0       850.0       950.0       0.000    
  10    0.000       850.0       700.0       630.0       530.0       580.0       650.0       800.0       900.0       950.0    
  11    0.000       850.0       700.0       620.0       580.0       620.0       700.0       800.0       900.0       0.000    
  12    900.0       830.0       710.0       640.0       600.0       650.0       700.0       800.0       900.0       0.000    
  13    900.0       810.0       750.0       700.0       650.0       700.0       750.0       800.0       900.0       0.000    
  14    0.000       950.0       850.0       850.0       850.0       850.0       850.0       850.0       850.0       0.000    
  15    0.000       0.000       950.0       950.0       950.0       950.0       0.000       0.000       0.000       0.000    


 STRESS PERIOD     LENGTH       TIME STEPS     MULTIPLIER FOR DELT    SS FLAG
 ----------------------------------------------------------------------------
        1         86400.00          1                    1.000         SS
        2         2628000.         30                    1.000         TR
        3         2628000.         30                    1.000         TR
        4         2628000.         30                    1.000         TR
        5         2628000.         30                    1.000         TR
        6         2628000.         30                    1.000         TR
        7         2628000.         30                    1.000         TR
        8         2628000.         30                    1.000         TR
        9         2628000.         30                    1.000         TR
       10         2628000.         30                    1.000         TR
       11         2628000.         30                    1.000         TR
       12         2628000.         30                    1.000         TR
       13         2628000.         30                    1.000         TR
       14         2628000.         30                    1.000         TR
       15         2628000.         30                    1.000         TR
       16         2628000.         30                    1.000         TR
       17         2628000.         30                    1.000         TR
       18         2628000.         30                    1.000         TR
       19         2628000.         30                    1.000         TR
       20         2628000.         30                    1.000         TR
       21         2628000.         30                    1.000         TR
       22         2628000.         30                    1.000         TR
       23         2628000.         30                    1.000         TR
       24         2628000.         30                    1.000         TR
       25         2628000.         30                    1.000         TR

 COMBINED STEADY-STATE AND TRANSIENT SIMULATION



 
 #Test Simulation 2-- Example problem using the UZF1 Package                     
 #Modified from example Problem 1 of SFR1 documentation report                   
 THE FREE FORMAT OPTION HAS BEEN SELECTED



                     BOUNDARY ARRAY FOR LAYER   1
 READING ON UNIT   75 WITH FORMAT: (20I4)              

                1           2           3           4           5           6           7           8           9          10
 ............................................................................................................................
   1            1           1           0           0           0           0           0           0           0           0
   2            1           1           1           0           0           1           1           1           0           0
   3            0           1           1           1           1           1           1           1           0           0
   4            1           1           1           1           1           1           1           1           1           0
   5            1           1           1           1           1           1           1           1           1           1
   6            1           1           1           1           1           1           1           1           1           1
   7            1           1           1           1           1           1           1           1           1           0
   8            0           1           1           1           1           1           1           1           1           0
   9            0           1           1           1           1           1           1           1           1           0
  10            0           1           1           1           1           1           1           1           1           1
  11            0           1           1           1           1           1           1           1           1           0
  12            1           1           1           1           1           1           1           1           1           0
  13            1           1           1           1           1           1           1           1           1           0
  14            0           1           1           1           1           1           1           1           1           0
  15            0           0           1           1           1           1           0           0           0           0

 AQUIFER HEAD WILL BE SET TO   6999.0     AT ALL NO-FLOW NODES (IBOUND=0).



                       INITIAL HEAD FOR LAYER   1
 READING ON UNIT   75 WITH FORMAT: (10F8.0)            

            1           2           3           4           5           6           7           8           9          10
 ........................................................................................................................
   1    1093.       1089.       6999.       6999.       6999.       6999.       6999.       6999.       6999.       6999.    
   2    1090.       1087.       1081.       6999.       6999.       1072.       1071.       1071.       6999.       6999.    
   3    6999.       1079.       1078.       1074.       1072.       1071.       1069.       1068.       6999.       6999.    
   4    1069.       1071.       1070.       1067.       1065.       1064.       1064.       1066.       1066.       6999.    
   5    1065.       1064.       1063.       1062.       1061.       1061.       1060.       1062.       1066.       1068.    
   6    1060.       1058.       1057.       1056.       1056.       1057.       1057.       1059.       1062.       1066.    
   7    1056.       1053.       1052.       1051.       1051.       1052.       1053.       1055.       1056.       6999.    
   8    6999.       1046.       1046.       1046.       1046.       1046.       1048.       1050.       1050.       6999.    
   9    6999.       1039.       1039.       1039.       1040.       1041.       1042.       1043.       1044.       6999.    
  10    6999.       1031.       1032.       1033.       1034.       1035.       1037.       1038.       1039.       1042.    
  11    6999.       1021.       1023.       1027.       1029.       1030.       1032.       1034.       1036.       6999.    
  12    1001.       1009.       1015.       1020.       1023.       1026.       1029.       1030.       1034.       6999.    
  13    994.5      1000.0       1007.       1013.       1019.       1024.       1029.       1034.       1036.       6999.    
  14    6999.       1004.       1009.       1014.       1019.       1024.       1029.       1035.       1039.       6999.    
  15    6999.       6999.       1012.       1015.       1019.       1022.       6999.       6999.       6999.       6999.    

 OUTPUT CONTROL IS SPECIFIED ONLY AT TIME STEPS FOR WHICH OUTPUT IS DESIRED
 HEADS WILL BE SAVED WITH FORMAT: (10F10.3)           
 SAVED HEADS WILL BE LABELED
 COMPACT CELL-BY-CELL BUDGET FILES WILL BE WRITTEN
 HEAD PRINT FORMAT CODE IS   4    DRAWDOWN PRINT FORMAT CODE IS   0
 HEADS WILL BE SAVED ON UNIT   62    DRAWDOWNS WILL BE SAVED ON UNIT    0
 # NWT Input File
 # Test Problem 3 for MODFLOW-NWT
 #HEADTOL  FLUXTOL MAXITEROUT THICKFACT LINMETH IPRNWT IBOTAV OPTIONS DBDREDUCE DBDINCREASE DBDGAMMA MOMFACT BACKFLAG MAXBACKITER BACKTOL BACKREDUCE

 NWT1 -- Newton Solver, VERSION 1.1.4, 4/01/2018
         INPUT READ FROM UNIT 13

 SPECIFIED OPTION:
 SOLVER INPUT VALUES ARE SPECIFIED BY USER
 ***XMD linear solver will be used***
 
   CONVERGENCE CRITERION OF   0.100000E-03 FOR HEAD SOLUTION
   AND A TOLERANCE OF   0.100000E+03 FOR FLOW SOLUTION AND 
   A MAXIMUM OF   500 OUTER ITERATIONS. 


   D-B-D REDUCTION FACTOR OF    0.990000E+00 AND 
   A D-B-D INCREASE FACTOR OF    0.100000E-04 AND 
   A D-B-D RELAXATION OF    0.000000E+00 AND 
   A MOMENTUM FACTOR OF    0.100000E+00 .


 ***BACKTRACKING IS INACTIVE***
 XMD -- LINEAR SOLUTION BY XMD PACKAGE VERSION 1.30
     BY MOTOMU IBARAKI, OHIO STATE UNIVERSITY, COLOMBUS, OH
                 INPUT READ FROM UNIT 13
 ACCELERATION METHOD                    (IACL) =         2
 NODE ORDERING FLAG                   (NORDER) =         0
 LEVEL OF FILL                         (LEVEL) =        10
 MAXIMUM NUMBER OF ORTHOGONALIZATIONS  (NORTH) =        10
 INDEX FOR USING REDUCED SYSTEM      (IREDSYS) =         1
 RESID. REDUCTION CONVERGE CRITERION  (RRCTOL) =  0.000000E+00
 INDEX FOR USING DROP TOLERANCE     (IDROPTOL) =         1
 DROP TOLERANCE VALUE                  (EPSRN) =  0.500000E-02
 CONVERGENCE CRITERIA OF           (HCLOSEXMD) =  0.100000E-03
 MAX. NUMBER OF LINEAR ITERATIONS  (MXITERXMD) =        50


 UPW1 -- UPSTREAM WEIGHTING FLOW PACKAGE, VERSION 1.1.4, 4/01/2018
         INPUT READ FROM UNIT  7

 #Layer-Property Flow Package input for test simulation 2
 CELL-BY-CELL FLOWS WILL BE SAVED ON UNIT  102
 No named parameters

   LAYER FLAGS:
 LAYER       LAYTYP          LAYAVG    CHANI           LAYVKA           LAYWET
 ---------------------------------------------------------------------------
    1             1             0     1.000E+00             0             0

   INTERPRETATION OF LAYER FLAGS:
                        INTERBLOCK     HORIZONTAL    DATA IN
         LAYER TYPE   TRANSMISSIVITY   ANISOTROPY   ARRAY VKA   WETTABILITY
 LAYER   (LAYTYP)        (LAYAVG)      (CHANI)     (LAYVKA)       (LAYWET)
 ---------------------------------------------------------------------------
    1   CONVERTIBLE      HARMONIC     1.000E+00    VERTICAL K  NON-WETTABLE



              HYD. COND. ALONG ROWS FOR LAYER   1
 READING ON UNIT    7 WITH FORMAT: (10F5.0)            

            1           2           3           4           5           6           7           8           9          10
 ........................................................................................................................
   1   2.0000E-03  2.0000E-03   0.000       0.000       0.000       0.000       0.000       0.000       0.000       0.000    
   2   4.0000E-04  2.0000E-03  2.0000E-03   0.000       0.000      4.0000E-04  4.0000E-04  4.0000E-04   0.000       0.000    
   3    0.000      4.0000E-04  2.0000E-03  2.0000E-03  4.0000E-04  4.0000E-04  4.0000E-04  4.0000E-04   0.000       0.000    
   4   4.0000E-04  4.0000E-04  4.0000E-04  2.0000E-03  2.0000E-03  2.0000E-03  4.0000E-04  4.0000E-04  4.0000E-04   0.000    
   5   4.0000E-04  4.0000E-04  4.0000E-04  2.0000E-03  2.0000E-03  2.0000E-03  2.0000E-03  2.0000E-03  2.0000E-03  2.0000E-03
   6   4.0000E-04  4.0000E-04  4.0000E-04  2.0000E-03  2.0000E-03  2.0000E-03  2.0000E-03  2.0000E-03  4.0000E-04  4.0000E-04
   7   4.0000E-04  4.0000E-04  4.0000E-04  2.0000E-03  2.0000E-03  2.0000E-03  2.0000E-03  2.0000E-03  4.0000E-04   0.000    
   8    0.000      4.0000E-04  4.0000E-04  2.0000E-03  2.0000E-03  2.0000E-03  2.0000E-03  4.0000E-04  4.0000E-04   0.000    
   9    0.000      4.0000E-04  4.0000E-04  2.0000E-03  2.0000E-03  2.0000E-03  2.0000E-03  4.0000E-04  4.0000E-04   0.000    
  10    0.000      4.0000E-04  4.0000E-04  2.0000E-03  2.0000E-03  2.0000E-03  2.0000E-03  4.0000E-04  4.0000E-04  4.0000E-04
  11    0.000      4.0000E-04  4.0000E-04  2.0000E-03  2.0000E-03  2.0000E-03  2.0000E-03  4.0000E-04  4.0000E-04   0.000    
  12   4.0000E-04  4.0000E-04  2.0000E-03  2.0000E-03  2.0000E-03  2.0000E-03  2.0000E-03  4.0000E-04  4.0000E-04   0.000    
  13   2.0000E-03  2.0000E-03  2.0000E-03  2.0000E-03  2.0000E-03  2.0000E-03  2.0000E-03  2.0000E-03  2.0000E-03   0.000    
  14    0.000      4.0000E-04  4.0000E-04  4.0000E-04  4.0000E-04  4.0000E-04  4.0000E-04  4.0000E-04  2.0000E-03   0.000    
  15    0.000       0.000      4.0000E-04  4.0000E-04  4.0000E-04  4.0000E-04   0.000       0.000       0.000       0.000    

      VERTICAL HYD. COND. =  1.000000E-06 FOR LAYER   1

         SPECIFIC STORAGE =  1.000000E-06 FOR LAYER   1



                     SPECIFIC YIELD FOR LAYER   1
 READING ON UNIT    7 WITH FORMAT: (10F5.0)            

            1           2           3           4           5           6           7           8           9          10
 ........................................................................................................................
   1   0.2000      0.2000       0.000       0.000       0.000       0.000       0.000       0.000       0.000       0.000    
   2   0.1000      0.2000      0.2000       0.000       0.000      0.1000      0.1000      0.1000       0.000       0.000    
   3    0.000      0.1000      0.2000      0.2000      0.1000      0.1000      0.1000      0.1000       0.000       0.000    
   4   0.1000      0.1000      0.1000      0.2000      0.2000      0.2000      0.1000      0.1000      0.1000       0.000    
   5   0.1000      0.1000      0.1000      0.2000      0.2000      0.2000      0.2000      0.2000      0.2000      0.2000    
   6   0.1000      0.1000      0.1000      0.2000      0.2000      0.2000      0.2000      0.2000      0.1000      0.1000    
   7   0.1000      0.1000      0.1000      0.2000      0.2000      0.2000      0.2000      0.2000      0.1000       0.000    
   8    0.000      0.1000      0.1000      0.2000      0.2000      0.2000      0.2000      0.1000      0.1000       0.000    
   9    0.000      0.1000      0.1000      0.2000      0.2000      0.2000      0.2000      0.1000      0.1000       0.000    
  10    0.000      0.1000      0.1000      0.2000      0.2000      0.2000      0.2000      0.1000      0.1000      0.1000    
  11    0.000      0.1000      0.1000      0.2000      0.2000      0.2000      0.2000      0.1000      0.1000       0.000    
  12   0.1000      0.1000      0.2000      0.2000      0.2000      0.2000      0.2000      0.1000      0.1000       0.000    
  13   0.2000      0.2000      0.2000      0.2000      0.2000      0.2000      0.2000      0.2000      0.2000       0.000    
  14    0.000      0.1000      0.1000      0.1000      0.1000      0.1000      0.1000      0.1000      0.2000       0.000    
  15    0.000       0.000      0.1000      0.1000      0.1000      0.1000       0.000       0.000       0.000       0.000    

 GHB -- GENERAL-HEAD BOUNDARY PACKAGE, VERSION 7, 5/2/2005
         INPUT READ FROM UNIT   17
 No named parameters
 MAXIMUM OF      2 ACTIVE GHB CELLS AT ONE TIME
 CELL-BY-CELL FLOWS WILL BE PRINTED WHEN ICBCFL NOT 0


     0 GHB parameters

 SFR7 -- STREAMFLOW ROUTING PACKAGE, VERSION 1.0.5, 2012-04-05
         INPUT READ FROM UNIT  15
 #SFR2 Package input for Testing supplimental pumping and irrigation
 No named parameters

 PROCESSING SFR2 OPTIONS
 
 
Stream loss will be calculated as a factor of the streambed hydraulic conductivity. Multiplication factor is equal to     0.1000000015E+00
          2 Specified inflow files will be read with a maximum of        759 row entries per file

 END PROCESSING SFR2 OPTIONS
 


 NUMBER OF STREAM REACHES IS   37

 NUMBER OF STREAM SEGMENTS IS    9

 NUMBER OF STREAM PARAMETERS IS    0

 NUMBER OF STREAM SEGMENTS DEFINED USING PARAMETERS IS              0

 MAXIMUM ERROR FOR STREAM LEAKAGE RATES IS  1.00E-06

 CONSTANT FOR MANNINGS EQUATION IS  1.4860E+00



 STREAM OUTPUT WILL BE WRITTEN TO FILE ON UNIT   81


   STREAM NETWORK DESCRIPTION: 

   LAYER    ROW    COL   SEGMENT   REACH     LENGTH
                          NUMBER   NUMBER    IN CELL        
   --------------------------------------------------
      1      1      1       1        1    4.5000E+03
      1      2      2       1        2    7.0000E+03
      1      3      3       1        3    6.0000E+03
      1      3      4       1        4    5.5500E+03
      1      4      5       2        1    6.5000E+03
      1      5      6       2        2    5.0000E+03
      1      6      6       2        3    5.0000E+03
      1      7      6       2        4    5.0000E+03
      1      8      6       2        5    5.0000E+03
      1      3      5       3        1    5.0000E+03
      1      3      6       3        2    5.0000E+03
      1      3      7       3        3    4.5000E+03
      1      4      8       3        4    6.0000E+03
      1      5      8       3        5    5.0000E+03
      1      6      8       3        6    2.0000E+03
      1      5     10       4        1    2.5000E+03
      1      5      9       4        2    5.0000E+03
      1      6      8       4        3    3.5000E+03
      1      6      8       5        1    4.0000E+03
      1      7      7       5        2    5.0000E+03
      1      8      7       5        3    3.5000E+03
      1      8      6       5        4    2.5000E+03
      1      9      6       6        1    5.0000E+03
      1     10      7       6        2    5.0000E+03
      1     11      7       6        3    5.0000E+03
      1     12      7       6        4    5.0000E+03
      1     13      7       6        5    2.0000E+03
      1     14      9       7        1    5.0000E+03
      1     13      8       7        2    5.5000E+03
      1     13      7       7        3    5.0000E+03
      1     13      6       8        1    5.0000E+03
      1     13      5       8        2    5.0000E+03
      1     13      4       8        3    5.0000E+03
      1     13      3       8        4    5.0000E+03
      1     13      2       8        5    5.0000E+03
      1     13      1       8        6    3.0000E+03
      1      6      8       9        1    5.0000E+01




 UZF1 -- UNSATURATED FLOW PACKAGE, VERSION 1.4, 02/06/2012
         INPUT READ FROM UNIT 19
 #UZF Package input for test simulation 2
 No named parameters

 PROCESSING UZF OPTIONS
 
 
 INITIAL WATER CONTENT (THTI) WILL BE 
READ FOR THE FIRST SS OR TR STRESS PERIOD
 
 
 RESIDUAL WATER CONTENT (THTR) WILL BE 
READ AND USED FOR THE FIRST TRANSIENT STRESS 
PERIOD
 
 #etsquare    0.1
 
INFILTRATION WILL BE REJECTED USING 
LAND SURFACE K
 
 
HYDRAULIC CONDUCTIVITY OF LAND SURFACE 
WILL BE READ
 

 END PROCESSING UZF OPTIONS



            AREAL EXTENT OF UZ FLOW
 READING ON UNIT   19 WITH FORMAT: (20I4)              

                1           2           3           4           5           6           7           8           9          10
 ............................................................................................................................
   1            1           1           0           0           0           0           0           0           0           0
   2            1           1           1           0           0           1           1           1           0           0
   3            0           1           1           1           1           1           1           1           0           0
   4            1           1           1           1           1           1           1           1           1           0
   5            1           1           1           1           1           1           1           1           1           1
   6            1           1           1           1           1           1           1           1           1           1
   7            1           1           1           1           1           1           1           1           1           0
   8            0           1           1           1           1           1           1           1           1           0
   9            0           1           1           1           1           1           1           1           1           0
  10            0           1           1           1           1           1           1           1           1           1
  11            0           1           1           1           1           1           1           1           1           0
  12            1           1           1           1           1           1           1           1           1           0
  13            1           1           1           1           1           1           1           1           1           0
  14            0           1           1           1           1           1           1           1           1           0
  15            0           0           1           1           1           1           0           0           0           0
 OPTION 1 -- RECHARGE IN UZF TO TOP LAYER ONLY 



            ROUTING OVERLAND RUNOFF
 READING ON UNIT   19 WITH FORMAT: (20I4)              

                1           2           3           4           5           6           7           8           9          10
 ............................................................................................................................
   1            1           1           0           0           0           0           0           0           0           0
   2            1           1           1           0           0           3           3           3           0           0
   3            0           1           1           1           3           3           3           3           0           0
   4            8           8           2           2           2           2           2           3           3           0
   5            8           8           8           8           2           2           2           3           4           4
   6            8           8           8           8           8           2           2           4           4           4
   7            8           8           8           8           8           2           5           5           5           0
   8            0           8           8           8           8           2           5           5           5           0
   9            0           8           8           8           8           6           6           6           6           0
  10            0           8           8           8           8           6           6           6           6           6
  11            0           8           8           8           8           8           6           6           7           0
  12            8           8           8           8           8           8           6           7           7           0
  13            8           8           8           8           8           8           7           7           7           0
  14            0           8           8           8           8           8           7           7           7           0
  15            0           0           8           8           8           8           0           0           0           0



               SATURATED VERTICAL K
 READING ON UNIT   19 WITH FORMAT: (10F4.0)            

            1           2           3           4           5           6           7           8           9          10
 ........................................................................................................................
   1   1.0000E-05  1.0000E-05   0.000       0.000       0.000       0.000       0.000       0.000       0.000       0.000    
   2   1.0000E-05  1.0000E-05  1.0000E-05   0.000       0.000      1.0000E-05  1.0000E-05  1.0000E-05   0.000       0.000    
   3    0.000      1.0000E-05  1.0000E-05  1.0000E-05  1.0000E-05  1.0000E-05  1.0000E-05  1.0000E-05   0.000       0.000    
   4   1.0000E-05  1.0000E-05  1.0000E-05  1.0000E-05  1.0000E-05  1.0000E-05  1.0000E-05  1.0000E-05  1.0000E-05   0.000    
   5   1.0000E-05  1.0000E-05  1.0000E-05  1.0000E-05  1.0000E-05  1.0000E-05  1.0000E-05  1.0000E-05  1.0000E-05  1.0000E-05
   6   1.0000E-05  1.0000E-05  1.0000E-05  1.0000E-05  1.0000E-05  1.0000E-05  1.0000E-05  1.0000E-05  1.0000E-05  1.0000E-05
   7   1.0000E-05  1.0000E-05  1.0000E-05  1.0000E-05  1.0000E-05  1.0000E-05  1.0000E-05  1.0000E-05  1.0000E-05   0.000    
   8    0.000      1.0000E-05  1.0000E-05  1.0000E-05  1.0000E-05  1.0000E-05  1.0000E-05  1.0000E-05  1.0000E-05   0.000    
   9    0.000      1.0000E-05  1.0000E-05  1.0000E-05  1.0000E-05  1.0000E-05  1.0000E-05  1.0000E-05  1.0000E-05   0.000    
  10    0.000      1.0000E-05  1.0000E-05  1.0000E-05  1.0000E-05  1.0000E-05  1.0000E-05  1.0000E-05  1.0000E-05  1.0000E-05
  11    0.000      1.0000E-05  1.0000E-05  1.0000E-05  1.0000E-05  1.0000E-05  1.0000E-05  1.0000E-05  1.0000E-05   0.000    
  12   1.0000E-05  1.0000E-05  1.0000E-05  1.0000E-05  1.0000E-05  1.0000E-05  1.0000E-05  1.0000E-05  1.0000E-05   0.000    
  13   1.0000E-05  1.0000E-05  1.0000E-05  1.0000E-05  1.0000E-05  1.0000E-05  1.0000E-05  1.0000E-05  1.0000E-05   0.000    
  14    0.000      1.0000E-05  1.0000E-05  1.0000E-05  1.0000E-05  1.0000E-05  1.0000E-05  1.0000E-05  1.0000E-05   0.000    
  15    0.000       0.000      1.0000E-05  1.0000E-05  1.0000E-05  1.0000E-05   0.000       0.000       0.000       0.000    



            LAND SURFACE VERTICAL K
 READING ON UNIT   19 WITH FORMAT: (10F4.0)            

            1           2           3           4           5           6           7           8           9          10
 ........................................................................................................................
   1   1.0000E-05  1.0000E-05   0.000       0.000       0.000       0.000       0.000       0.000       0.000       0.000    
   2   1.0000E-05  1.0000E-05  1.0000E-05   0.000       0.000      1.0000E-05  1.0000E-05  1.0000E-05   0.000       0.000    
   3    0.000      1.0000E-05  1.0000E-05  1.0000E-05  1.0000E-05  1.0000E-05  1.0000E-05  1.0000E-05   0.000       0.000    
   4   1.0000E-05  1.0000E-05  1.0000E-05  1.0000E-05  1.0000E-05  1.0000E-05  1.0000E-05  1.0000E-05  1.0000E-05   0.000    
   5   1.0000E-05  1.0000E-05  1.0000E-05  1.0000E-05  1.0000E-05  1.0000E-05  1.0000E-05  1.0000E-05  1.0000E-05  1.0000E-05
   6   1.0000E-05  1.0000E-05  1.0000E-05  1.0000E-05  1.0000E-05  1.0000E-05  1.0000E-05  1.0000E-05  1.0000E-05  1.0000E-05
   7   1.0000E-05  1.0000E-05  1.0000E-05  1.0000E-05  1.0000E-05  1.0000E-05  1.0000E-05  1.0000E-05  1.0000E-05   0.000    
   8    0.000      1.0000E-05  1.0000E-05  1.0000E-05  1.0000E-05  1.0000E-05  1.0000E-05  1.0000E-05  1.0000E-05   0.000    
   9    0.000      1.0000E-05  1.0000E-05  1.0000E-05  1.0000E-05  1.0000E-05  1.0000E-05  1.0000E-05  1.0000E-05   0.000    
  10    0.000      1.0000E-05  1.0000E-05  1.0000E-05  1.0000E-05  1.0000E-05  1.0000E-05  1.0000E-05  1.0000E-05  1.0000E-05
  11    0.000      1.0000E-05  1.0000E-05  1.0000E-05  1.0000E-05  1.0000E-05  1.0000E-05  1.0000E-05  1.0000E-05   0.000    
  12   1.0000E-05  1.0000E-05  1.0000E-05  1.0000E-05  1.0000E-05  1.0000E-05  1.0000E-05  1.0000E-05  1.0000E-05   0.000    
  13   1.0000E-05  1.0000E-05  1.0000E-05  1.0000E-05  1.0000E-05  1.0000E-05  1.0000E-05  1.0000E-05  1.0000E-05   0.000    
  14    0.000      1.0000E-05  1.0000E-05  1.0000E-05  1.0000E-05  1.0000E-05  1.0000E-05  1.0000E-05  1.0000E-05   0.000    
  15    0.000       0.000      1.0000E-05  1.0000E-05  1.0000E-05  1.0000E-05   0.000       0.000       0.000       0.000    

     BROOKS-COREY EPSILON =   5.50000    

  SATURATED WATER CONTENT =  0.220000    

   RESIDUAL WATER CONTENT =  5.000000E-02

    INITIAL WATER CONTENT =  6.000000E-02

UNSATURATED FLOW RESULTS WILL BE PRINTED TO SEPARATE FILES FOR SELECTED MODEL CELLS, AND TIME STEPS AS DEFINED BY OUTPUT CONTROL PACKAGE 

SELECTED MODEL CELLS ARE: 
 ROW NUMBER  COLUMN NUMBER  FORTRAN UNIT NUMBER  OUTPUT OPTION


       6             4                 65                 1
       6             5                 66                 2
       8             4                 67                 3
       0             0                 68                 4



   9 GAGING STATIONS WERE SPECIFIED.
     (Lakes are identified by a negative value of the Lake Number)
     RECORDS WILL BE WRITTEN TO SEPARATE OUTPUT FILES REPRESENTED BY FOLLOWING UNIT NUMBERS:

 Stream Gages:
  GAGE #   SEGMENT   REACH   UNIT   OUTTYPE
       1       1       4      83       1
       2       2       3      84       1
       3       3       5      85       1
       4       4       3      86       1
       5       5       4      87       4
       6       6       5      88       4
       7       7       3      89       4
       8       8       6      90       4
       9       9       1      91       5





 AWU -- AWU PACKAGE FOR NWT VERSION 1.1.3,  8/01/2017 INPUT READ FROM UNIT   57
 # AWU options

 PROCESSING AWU OPTIONS
 
 AGRICULTURAL DEMANDS WILL BE CALCULATED USING ET DEFICIT
 
 
 OPTION TO APPLY SURFACE WATER AS IRRIGATION IS ACTIVE. DIVERTED SURFACE WATER WILL BE APPLIED TO          1 CELLS/RHUS.
 
 
 OPTION TO PUMP SUPPLEMENTARY WATER FOR SURFACE DIVERSION SHORTFALL IS ACTIVATED.  A TOTAL OF             6 SUPPLEMENTAL WELLS ARE ACTIVE
 
 
 OPTION TO APPLY PUMPED WATER AS IRRIGATION IS ACTIVE. PUMPED IRRIGATION WATER WILL BE APPLIED TO          6 CELLS/RHUS.
 
 
 THE MAXIMUM NUMBER OF WELLS FOR SUPPLEMENTING DIVERSIONS OR APPLYING IRRIGATION IS          6 WELLS.
 
 
  UNFORMATTED CELL BY CELL RATES FOR SUP AND IRR WELLS WILL BE SAVED TO FILE UNIT NUMBER         -2
 
 
  UNFORMATTED CELL BY CELL RATES FOR SUP AND IRR WELLS WILL BE SAVED TO FILE UNIT NUMBER         -2
 
 
  UNFORMATTED CELL BY CELL RATES FOR SUP AND IRR WELLS WILL BE SAVED TO FILE UNIT NUMBER         -2
 
 
  UNFORMATTED CELL BY CELL RATES FOR SUP AND IRR WELLS WILL BE SAVED TO FILE UNIT NUMBER         -2
 
 
  SURFACE WATER IRRIGATION, POTENTIAL AND ACTUAL ET WILL BE SAVED TO TIMES SERIES OUTPUT FILES.
 
 
  GROUND WATER IRRIGATION, POTENTIAL AND ACTUAL ET WILL BE SAVED TO TIMES SERIES OUTPUT FILES.
 

 END PROCESSING AWU OPTIONS
 # AWU time series

 PROCESSING TIME SERIES

 FINISHED READING TIME SERIES
 A total number of          1 AWU output time series files were activated for SURFACE WATER 
 A total number of          1 AWU output time series files were activated for GROUNDWATER 
1
                            STRESS PERIOD NO.    1, LENGTH =   86400.00    
                            -----------------------------------------------

                              NUMBER OF TIME STEPS =     1

                               MULTIPLIER FOR DELT =     1.000

                            INITIAL TIME STEP SIZE =   86400.00    

 BOUND. NO. LAYER   ROW   COL     STAGE      CONDUCTANCE         
 ----------------------------------------------------------------
      1      1     13      1       988.0          0.3800E-01
      2      1     14      9       1045.          0.3800E-01

      2 GHB CELLS



 CLASSIFICATION & COUNT OF STREAM SEGMENTS BASED ON SOURCE OF INFLOW:

                HEADWATER     DIVERSION     RECEIVES TRIBUTARY FLOW
                ---------     ---------     -----------------------
                     3              2               4



                    INPUT DATA FOR EACH STREAM SEGMENT
 ---------------------------------------------------------------------------------------------

 SEGMENT    SEG.     INFLOW   OVERLAND   STREAM    STREAM   ICALC  OUTFLOW  DIVERSION PRIORITY
    NO.    LENGTH     RATE     RUNOFF      ET       PPT.    METH.  TO SEG.  FROM SEG.    NO.

      1  2.305E+04 2.500E+01 0.000E+00 0.000E+00 0.000E+00    4        2        0        0
      2  2.650E+04 0.000E+00 0.000E+00 0.000E+00 0.000E+00    1        6        0        0
      3  2.750E+04 2.000E+00 0.000E+00 0.000E+00 0.000E+00    0        5        1        0
      4  1.100E+04 1.000E+01 0.000E+00 0.000E+00 0.000E+00    1        5        0        0
      5  1.500E+04 0.000E+00 0.000E+00 0.000E+00 0.000E+00    3        6        0        0
      6  2.200E+04 0.000E+00 0.000E+00 0.000E+00 0.000E+00    1        8        0        0
      7  1.550E+04 1.500E+02 0.000E+00 0.000E+00 0.000E+00    2        8        0        0
      8  2.800E+04 0.000E+00 0.000E+00 0.000E+00 0.000E+00    2        0        0        0
      9  5.000E+01 0.000E+00 0.000E+00 0.000E+00 0.000E+00    1        0        2        0


         STREAMBED PROPERTIES AND STREAM DIMENSIONS

 SEGMENT     BED HYD. COND.      BED THICKNESS     ELEV.-TOP OF BED     WIDTH OF STREAM     DEPTH OF STREAM    STREAM ROUGHNESS
    No.     UPPER     LOWER     UPPER     LOWER     UPPER     LOWER     UPPER     LOWER     UPPER     LOWER   CHANNEL      BANK

     1  3.000E-05 3.000E-05 3.000E+00 3.000E+00 1.095E+03 1.075E+03
     2  3.000E-05 3.000E-05 3.000E+00 3.000E+00 1.075E+03 1.050E+03 1.200E+01 1.200E+01                     3.000E-02
     3  3.000E-05 3.000E-05 2.000E+00 2.000E+00 1.075E+03 1.060E+03 1.000E+01 6.000E+00 2.000E+00 1.000E+00
     4  3.000E-05 3.000E-05 3.000E+00 3.000E+00 1.080E+03 1.060E+03 1.000E+01 1.000E+01                     3.000E-02
     5  3.000E-05 3.000E-05 3.000E+00 3.000E+00 1.060E+03 1.045E+03
     6  3.000E-05 3.000E-05 3.000E+00 3.000E+00 1.045E+03 1.025E+03 1.200E+01 1.200E+01                     3.000E-02
     7  6.000E-05 6.000E-05 3.000E+00 3.000E+00 1.040E+03 1.025E+03                                         2.500E-02 4.500E-02
     8  6.000E-05 6.000E-05 3.000E+00 3.000E+00 1.025E+03 9.900E+02                                         2.500E-02 4.500E-02
     9  0.000E+00 0.000E+00 3.000E+00 3.000E+00 1.079E+03 1.078E+03 4.000E+00 4.000E+00                     3.000E-02

  EIGHT POINT CROSS-SECTION DATA FOR SEGMENTS WITH ICALC = 2
    X VALUES X VALUES START FROM LEFT SIDE LOOKING DOWNSTREAM

     SEGMENT NO.        X1        X2        X3        X4        X5        X6        X7        X8
            7      0.000E+00 1.000E+01 8.000E+01 1.000E+02 1.500E+02 1.700E+02 2.400E+02 2.500E+02
            8      0.000E+00 1.000E+01 8.000E+01 1.000E+02 1.500E+02 1.700E+02 2.400E+02 2.500E+02

    Z VALUES ARE RELATIVE TO STREAMBED ELEVATION

     SEGMENT NO.          Z1        Z2        Z3        Z4        Z5        Z6        Z7        Z8
            7      2.000E+01 1.300E+01 1.000E+01 2.000E+00 0.000E+00 1.000E+01 1.300E+01 2.000E+01
            8      2.500E+01 1.700E+01 1.300E+01 4.000E+00 0.000E+00 1.000E+01 1.600E+01 2.000E+01

 STREAMFLOW RELATION WITH DEPTH IS BASED ON EQUATION Q = CDPTH*(DEPTH)**FDPTH
 STREAMFLOW RELATION WITH WIDTH IS BASED ON EQUATION Q = AWDTH*(WIDTH)**BWDTH

 SEGMENT NO.      CDPTH     FDPTH    AWDTH     BWDTH

          5 3.000E-01 3.500E-01 3.800E+00 6.000E-01

 STREAMFLOW RELATION WITH DEPTH AND WIDTH IS BASED ON TABULATED VALUES

  SEGMENT NO.   STREAMFLOW       DEPTH       WIDTH

          1     5.0000E-01   2.5000E-01   3.0000E+00
          1     1.0000E+00   4.0000E-01   3.5000E+00
          1     2.0000E+00   5.5000E-01   4.2000E+00
          1     4.0000E+00   7.0000E-01   5.3000E+00
          1     7.0000E+00   8.0000E-01   7.0000E+00
          1     1.0000E+01   9.0000E-01   8.5000E+00
          1     2.0000E+01   1.1000E+00   1.2000E+01
          1     3.0000E+01   1.2500E+00   1.4000E+01
          1     5.0000E+01   1.4000E+00   1.7000E+01
          1     7.5000E+01   1.7000E+00   2.0000E+01
          1     1.0000E+02   1.8000E+00   2.2000E+01



TABULAR INFLOWS WERE READ FOR SEGMENT      1
FROM FILE UNIT NUMBER     55

          TIMES                    INFLOWS
             0.0000000000         5.0000000000
       2630000.0000000000        22.0000000000
       5260000.0000000000        42.0000000000
       7880000.0000000000        77.0000000000
      10500000.0000000000        28.0000000000
      13100000.0000000000        99.0000000000
      15800000.0000000000        63.0000000000
      18400000.0000000000        35.0000000000
      21000000.0000000000        21.0000000000
      23700000.0000000000         7.0000000000
      26300000.0000000000         3.5000000000
      28900000.0000000000         3.2999999523
      31500000.0000000000         3.0999999046
      34200000.0000000000        10.5000000000
      36800000.0000000000        21.0000000000
      39400000.0000000000        98.0000000000
      42000000.0000000000        35.0000000000
      44700000.0000000000        63.0000000000
      47300000.0000000000        28.0000000000
      49900000.0000000000        14.0000000000
      52600000.0000000000         7.0000000000
      55200000.0000000000         3.5000000000
      57800000.0000000000         3.2000000477
      60400000.0000000000         3.5000000000
      63100000.0000000000         3.5000000000
      65700000.0000000000        14.0000000000
TABULAR INFLOWS WERE READ FOR SEGMENT      9
FROM FILE UNIT NUMBER     56

          TIMES                    INFLOWS
             0.0000000000         0.0000000000
         86400.0000000000         0.0000000000
        173000.0000000000         0.0000000000
        259000.0000000000         0.0000000000
        346000.0000000000         0.0000000000
        432000.0000000000         0.0000000000
        518000.0000000000         0.0000000000
        605000.0000000000         0.0000000000
        691000.0000000000         0.0000000000
        778000.0000000000         0.0000000000
        864000.0000000000         0.0000000000
        950000.0000000000         0.0000000000
       1040000.0000000000         0.0000000000
       1120000.0000000000         0.0000000000
       1210000.0000000000         0.0000000000
       1300000.0000000000         0.0000000000
       1380000.0000000000         0.0000000000
       1470000.0000000000         0.0000000000
       1560000.0000000000         0.0000000000
       1640000.0000000000         0.0000000000
       1730000.0000000000         0.0000000000
       1810000.0000000000         0.0000000000
       1900000.0000000000         0.0000000000
       1990000.0000000000         0.0000000000
       2070000.0000000000         0.0000000000
       2160000.0000000000         0.0000000000
       2250000.0000000000         0.0000000000
       2330000.0000000000         0.0000000000
       2420000.0000000000         0.0000000000
       2510000.0000000000         0.0000000000
       2590000.0000000000         0.0000000000
       2680000.0000000000         0.0000000000
       2760000.0000000000         0.0000000000
       2850000.0000000000         0.0000000000
       2940000.0000000000         0.0000000000
       3020000.0000000000         0.0000000000
       3110000.0000000000         0.0000000000
       3200000.0000000000         0.0000000000
       3280000.0000000000         0.0000000000
       3370000.0000000000         0.0000000000
       3460000.0000000000         0.0000000000
       3540000.0000000000         0.0000000000
       3630000.0000000000         0.0000000000
       3720000.0000000000         0.0000000000
       3800000.0000000000         0.0000000000
       3890000.0000000000         0.0000000000
       3970000.0000000000         0.0000000000
       4060000.0000000000         0.0000000000
       4150000.0000000000         0.0000000000
       4230000.0000000000         0.0000000000
       4320000.0000000000         0.0000000000
       4410000.0000000000         0.0000000000
       4490000.0000000000         0.0000000000
       4580000.0000000000         0.0000000000
       4670000.0000000000         0.0000000000
       4750000.0000000000         0.0000000000
       4840000.0000000000         0.0000000000
       4920000.0000000000         0.0000000000
       5010000.0000000000         0.0000000000
       5100000.0000000000         0.0000000000
       5180000.0000000000         0.0000000000
       5270000.0000000000         0.0000000000
       5360000.0000000000         0.0000000000
       5440000.0000000000         0.0000000000
       5530000.0000000000         0.0000000000
       5620000.0000000000         0.0000000000
       5700000.0000000000         0.0000000000
       5790000.0000000000         0.0000000000
       5880000.0000000000         0.0000000000
       5960000.0000000000         0.0000000000
       6050000.0000000000         0.0000000000
       6130000.0000000000         0.0000000000
       6220000.0000000000         0.0000000000
       6310000.0000000000         0.0000000000
       6390000.0000000000         0.0000000000
       6480000.0000000000         0.0000000000
       6570000.0000000000         0.0000000000
       6650000.0000000000         0.0000000000
       6740000.0000000000         0.0000000000
       6830000.0000000000         0.0000000000
       6910000.0000000000         0.0000000000
       7000000.0000000000         0.0000000000
       7080000.0000000000         0.0000000000
       7170000.0000000000         0.0000000000
       7260000.0000000000         0.0000000000
       7340000.0000000000         0.0000000000
       7430000.0000000000         0.0000000000
       7520000.0000000000         0.0000000000
       7600000.0000000000         0.0000000000
       7690000.0000000000         0.0000000000
       7780000.0000000000         0.0000000000
       7860000.0000000000        20.0000000000
       7950000.0000000000        20.0000000000
       8040000.0000000000        20.0000000000
       8120000.0000000000        20.0000000000
       8210000.0000000000        20.0000000000
       8290000.0000000000        20.0000000000
       8380000.0000000000        20.0000000000
       8470000.0000000000         0.0000000000
       8550000.0000000000         0.0000000000
       8640000.0000000000         0.0000000000
       8730000.0000000000         0.0000000000
       8810000.0000000000         0.0000000000
       8900000.0000000000         0.0000000000
       8990000.0000000000         0.0000000000
       9070000.0000000000        20.0000000000
       9160000.0000000000        20.0000000000
       9240000.0000000000        20.0000000000
       9330000.0000000000        20.0000000000
       9420000.0000000000        20.0000000000
       9500000.0000000000        20.0000000000
       9590000.0000000000        20.0000000000
       9680000.0000000000         0.0000000000
       9760000.0000000000         0.0000000000
       9850000.0000000000         0.0000000000
       9940000.0000000000         0.0000000000
      10000000.0000000000         0.0000000000
      10100000.0000000000         0.0000000000
      10200000.0000000000         0.0000000000
      10300000.0000000000         0.0000000000
      10400000.0000000000         0.0000000000
      10500000.0000000000        20.0000000000
      10500000.0000000000        20.0000000000
      10600000.0000000000        20.0000000000
      10700000.0000000000        20.0000000000
      10800000.0000000000        20.0000000000
      10900000.0000000000        20.0000000000
      11000000.0000000000        20.0000000000
      11100000.0000000000         0.0000000000
      11100000.0000000000         0.0000000000
      11200000.0000000000         0.0000000000
      11300000.0000000000         0.0000000000
      11400000.0000000000         0.0000000000
      11500000.0000000000         0.0000000000
      11600000.0000000000         0.0000000000
      11700000.0000000000        20.0000000000
      11800000.0000000000        20.0000000000
      11800000.0000000000        20.0000000000
      11900000.0000000000        20.0000000000
      12000000.0000000000        20.0000000000
      12100000.0000000000        20.0000000000
      12200000.0000000000        20.0000000000
      12300000.0000000000         0.0000000000
      12400000.0000000000         0.0000000000
      12400000.0000000000         0.0000000000
      12500000.0000000000         0.0000000000
      12600000.0000000000         0.0000000000
      12700000.0000000000         0.0000000000
      12800000.0000000000         0.0000000000
      12900000.0000000000        20.0000000000
      13000000.0000000000        20.0000000000
      13000000.0000000000        20.0000000000
      13100000.0000000000        20.0000000000
      13200000.0000000000        20.0000000000
      13300000.0000000000        20.0000000000
      13400000.0000000000        20.0000000000
      13500000.0000000000         0.0000000000
      13600000.0000000000         0.0000000000
      13700000.0000000000         0.0000000000
      13700000.0000000000         0.0000000000
      13800000.0000000000         0.0000000000
      13900000.0000000000         0.0000000000
      14000000.0000000000         0.0000000000
      14100000.0000000000        20.0000000000
      14200000.0000000000        20.0000000000
      14300000.0000000000        20.0000000000
      14300000.0000000000        20.0000000000
      14400000.0000000000        20.0000000000
      14500000.0000000000        20.0000000000
      14600000.0000000000        20.0000000000
      14700000.0000000000         0.0000000000
      14800000.0000000000         0.0000000000
      14900000.0000000000         0.0000000000
      14900000.0000000000         0.0000000000
      15000000.0000000000         0.0000000000
      15100000.0000000000         0.0000000000
      15200000.0000000000         0.0000000000
      15300000.0000000000        20.0000000000
      15400000.0000000000        20.0000000000
      15500000.0000000000        20.0000000000
      15600000.0000000000        20.0000000000
      15600000.0000000000        20.0000000000
      15700000.0000000000        20.0000000000
      15800000.0000000000        20.0000000000
      15900000.0000000000         0.0000000000
      16000000.0000000000         0.0000000000
      16100000.0000000000         0.0000000000
      16200000.0000000000         0.0000000000
      16200000.0000000000         0.0000000000
      16300000.0000000000         0.0000000000
      16400000.0000000000         0.0000000000
      16500000.0000000000        20.0000000000
      16600000.0000000000        20.0000000000
      16700000.0000000000        20.0000000000
      16800000.0000000000        20.0000000000
      16800000.0000000000        20.0000000000
      16900000.0000000000        20.0000000000
      17000000.0000000000        20.0000000000
      17100000.0000000000         0.0000000000
      17200000.0000000000         0.0000000000
      17300000.0000000000         0.0000000000
      17400000.0000000000         0.0000000000
      17500000.0000000000         0.0000000000
      17500000.0000000000         0.0000000000
      17600000.0000000000         0.0000000000
      17700000.0000000000        20.0000000000
      17800000.0000000000        20.0000000000
      17900000.0000000000        20.0000000000
      18000000.0000000000        20.0000000000
      18100000.0000000000        20.0000000000
      18100000.0000000000        20.0000000000
      18200000.0000000000        20.0000000000
      18300000.0000000000         0.0000000000
      18400000.0000000000         0.0000000000
      18500000.0000000000         0.0000000000
      18600000.0000000000         0.0000000000
      18700000.0000000000         0.0000000000
      18700000.0000000000         0.0000000000
      18800000.0000000000         0.0000000000
      18900000.0000000000        20.0000000000
      19000000.0000000000        20.0000000000
      19100000.0000000000        20.0000000000
      19200000.0000000000        20.0000000000
      19300000.0000000000        20.0000000000
      19400000.0000000000        20.0000000000
      19400000.0000000000        20.0000000000
      19500000.0000000000         0.0000000000
      19600000.0000000000         0.0000000000
      19700000.0000000000         0.0000000000
      19800000.0000000000         0.0000000000
      19900000.0000000000         0.0000000000
      20000000.0000000000         0.0000000000
      20000000.0000000000         0.0000000000
      20100000.0000000000        20.0000000000
      20200000.0000000000        20.0000000000
      20300000.0000000000        20.0000000000
      20400000.0000000000        20.0000000000
      20500000.0000000000        20.0000000000
      20600000.0000000000        20.0000000000
      20600000.0000000000        20.0000000000
      20700000.0000000000         0.0000000000
      20800000.0000000000         0.0000000000
      20900000.0000000000         0.0000000000
      21000000.0000000000         0.0000000000
      21100000.0000000000         0.0000000000
      21200000.0000000000         0.0000000000
      21300000.0000000000         0.0000000000
      21300000.0000000000        20.0000000000
      21400000.0000000000        20.0000000000
      21500000.0000000000        20.0000000000
      21600000.0000000000        20.0000000000
      21700000.0000000000        20.0000000000
      21800000.0000000000        20.0000000000
      21900000.0000000000        20.0000000000
      21900000.0000000000         0.0000000000
      22000000.0000000000         0.0000000000
      22100000.0000000000         0.0000000000
      22200000.0000000000         0.0000000000
      22300000.0000000000         0.0000000000
      22400000.0000000000         0.0000000000
      22500000.0000000000         0.0000000000
      22600000.0000000000        20.0000000000
      22600000.0000000000        20.0000000000
      22700000.0000000000        20.0000000000
      22800000.0000000000        20.0000000000
      22900000.0000000000        20.0000000000
      23000000.0000000000        20.0000000000
      23100000.0000000000        20.0000000000
      23200000.0000000000         0.0000000000
      23200000.0000000000         0.0000000000
      23300000.0000000000         0.0000000000
      23400000.0000000000         0.0000000000
      23500000.0000000000         0.0000000000
      23600000.0000000000         0.0000000000
      23700000.0000000000         0.0000000000
      23800000.0000000000         0.0000000000
      23800000.0000000000         0.0000000000
      23900000.0000000000         0.0000000000
      24000000.0000000000         0.0000000000
      24100000.0000000000         0.0000000000
      24200000.0000000000         0.0000000000
      24300000.0000000000         0.0000000000
      24400000.0000000000         0.0000000000
      24500000.0000000000         0.0000000000
      24500000.0000000000         0.0000000000
      24600000.0000000000         0.0000000000
      24700000.0000000000         0.0000000000
      24800000.0000000000         0.0000000000
      24900000.0000000000         0.0000000000
      25000000.0000000000         0.0000000000
      25100000.0000000000         0.0000000000
      25100000.0000000000         0.0000000000
      25200000.0000000000         0.0000000000
      25300000.0000000000         0.0000000000
      25400000.0000000000         0.0000000000
      25500000.0000000000         0.0000000000
      25600000.0000000000         0.0000000000
      25700000.0000000000         0.0000000000
      25700000.0000000000         0.0000000000
      25800000.0000000000         0.0000000000
      25900000.0000000000         0.0000000000
      26000000.0000000000         0.0000000000
      26100000.0000000000         0.0000000000
      26200000.0000000000         0.0000000000
      26300000.0000000000         0.0000000000
      26400000.0000000000         0.0000000000
      26400000.0000000000         0.0000000000
      26500000.0000000000         0.0000000000
      26600000.0000000000         0.0000000000
      26700000.0000000000         0.0000000000
      26800000.0000000000         0.0000000000
      26900000.0000000000         0.0000000000
      27000000.0000000000         0.0000000000
      27000000.0000000000         0.0000000000
      27100000.0000000000         0.0000000000
      27200000.0000000000         0.0000000000
      27300000.0000000000         0.0000000000
      27400000.0000000000         0.0000000000
      27500000.0000000000         0.0000000000
      27600000.0000000000         0.0000000000
      27600000.0000000000         0.0000000000
      27700000.0000000000         0.0000000000
      27800000.0000000000         0.0000000000
      27900000.0000000000         0.0000000000
      28000000.0000000000         0.0000000000
      28100000.0000000000         0.0000000000
      28200000.0000000000         0.0000000000
      28300000.0000000000         0.0000000000
      28300000.0000000000         0.0000000000
      28400000.0000000000         0.0000000000
      28500000.0000000000         0.0000000000
      28600000.0000000000         0.0000000000
      28700000.0000000000         0.0000000000
      28800000.0000000000         0.0000000000
      28900000.0000000000         0.0000000000
      28900000.0000000000         0.0000000000
      29000000.0000000000         0.0000000000
      29100000.0000000000         0.0000000000
      29200000.0000000000         0.0000000000
      29300000.0000000000         0.0000000000
      29400000.0000000000         0.0000000000
      29500000.0000000000         0.0000000000
      29500000.0000000000         0.0000000000
      29600000.0000000000         0.0000000000
      29700000.0000000000         0.0000000000
      29800000.0000000000         0.0000000000
      29900000.0000000000         0.0000000000
      30000000.0000000000         0.0000000000
      30100000.0000000000         0.0000000000
      30200000.0000000000         0.0000000000
      30200000.0000000000         0.0000000000
      30300000.0000000000         0.0000000000
      30400000.0000000000         0.0000000000
      30500000.0000000000         0.0000000000
      30600000.0000000000         0.0000000000
      30700000.0000000000         0.0000000000
      30800000.0000000000         0.0000000000
      30800000.0000000000         0.0000000000
      30900000.0000000000         0.0000000000
      31000000.0000000000         0.0000000000
      31100000.0000000000         0.0000000000
      31200000.0000000000         0.0000000000
      31300000.0000000000         0.0000000000
      31400000.0000000000         0.0000000000
      31400000.0000000000         0.0000000000
      31500000.0000000000         0.0000000000
      31600000.0000000000         0.0000000000
      31700000.0000000000         0.0000000000
      31800000.0000000000         0.0000000000
      31900000.0000000000         0.0000000000
      32000000.0000000000         0.0000000000
      32100000.0000000000         0.0000000000
      32100000.0000000000         0.0000000000
      32200000.0000000000         0.0000000000
      32300000.0000000000         0.0000000000
      32400000.0000000000         0.0000000000
      32500000.0000000000         0.0000000000
      32600000.0000000000         0.0000000000
      32700000.0000000000         0.0000000000
      32700000.0000000000         0.0000000000
      32800000.0000000000         0.0000000000
      32900000.0000000000         0.0000000000
      33000000.0000000000         0.0000000000
      33100000.0000000000         0.0000000000
      33200000.0000000000         0.0000000000
      33300000.0000000000         0.0000000000
      33400000.0000000000         0.0000000000
      33400000.0000000000         0.0000000000
      33500000.0000000000         0.0000000000
      33600000.0000000000         0.0000000000
      33700000.0000000000         0.0000000000
      33800000.0000000000         0.0000000000
      33900000.0000000000         0.0000000000
      34000000.0000000000         0.0000000000
      34000000.0000000000         0.0000000000
      34100000.0000000000         0.0000000000
      34200000.0000000000         0.0000000000
      34300000.0000000000         0.0000000000
      34400000.0000000000         0.0000000000
      34500000.0000000000         0.0000000000
      34600000.0000000000         0.0000000000
      34600000.0000000000         0.0000000000
      34700000.0000000000         0.0000000000
      34800000.0000000000         0.0000000000
      34900000.0000000000         0.0000000000
      35000000.0000000000         0.0000000000
      35100000.0000000000         0.0000000000
      35200000.0000000000         0.0000000000
      35300000.0000000000         0.0000000000
      35300000.0000000000         0.0000000000
      35400000.0000000000         0.0000000000
      35500000.0000000000         0.0000000000
      35600000.0000000000         0.0000000000
      35700000.0000000000         0.0000000000
      35800000.0000000000         0.0000000000
      35900000.0000000000         0.0000000000
      35900000.0000000000         0.0000000000
      36000000.0000000000         0.0000000000
      36100000.0000000000         0.0000000000
      36200000.0000000000         0.0000000000
      36300000.0000000000         0.0000000000
      36400000.0000000000         0.0000000000
      36500000.0000000000         0.0000000000
      36500000.0000000000         0.0000000000
      36600000.0000000000         0.0000000000
      36700000.0000000000         0.0000000000
      36800000.0000000000         0.0000000000
      36900000.0000000000         0.0000000000
      37000000.0000000000         0.0000000000
      37100000.0000000000         0.0000000000
      37200000.0000000000         0.0000000000
      37200000.0000000000         0.0000000000
      37300000.0000000000         0.0000000000
      37400000.0000000000         0.0000000000
      37500000.0000000000         0.0000000000
      37600000.0000000000         0.0000000000
      37700000.0000000000         0.0000000000
      37800000.0000000000         0.0000000000
      37800000.0000000000         0.0000000000
      37900000.0000000000         0.0000000000
      38000000.0000000000         0.0000000000
      38100000.0000000000         0.0000000000
      38200000.0000000000         0.0000000000
      38300000.0000000000         0.0000000000
      38400000.0000000000         0.0000000000
      38400000.0000000000         0.0000000000
      38500000.0000000000         0.0000000000
      38600000.0000000000         0.0000000000
      38700000.0000000000         0.0000000000
      38800000.0000000000         0.0000000000
      38900000.0000000000         0.0000000000
      39000000.0000000000        20.0000000000
      39100000.0000000000        20.0000000000
      39100000.0000000000        20.0000000000
      39200000.0000000000        20.0000000000
      39300000.0000000000        20.0000000000
      39400000.0000000000        20.0000000000
      39500000.0000000000        20.0000000000
      39600000.0000000000         0.0000000000
      39700000.0000000000         0.0000000000
      39700000.0000000000         0.0000000000
      39800000.0000000000         0.0000000000
      39900000.0000000000         0.0000000000
      40000000.0000000000         0.0000000000
      40100000.0000000000         0.0000000000
      40200000.0000000000        20.0000000000
      40300000.0000000000        20.0000000000
      40300000.0000000000        20.0000000000
      40400000.0000000000        20.0000000000
      40500000.0000000000        20.0000000000
      40600000.0000000000        20.0000000000
      40700000.0000000000        20.0000000000
      40800000.0000000000         0.0000000000
      40900000.0000000000         0.0000000000
      41000000.0000000000         0.0000000000
      41000000.0000000000         0.0000000000
      41100000.0000000000         0.0000000000
      41200000.0000000000         0.0000000000
      41300000.0000000000         0.0000000000
      41400000.0000000000         0.0000000000
      41500000.0000000000         0.0000000000
      41600000.0000000000        20.0000000000
      41600000.0000000000        20.0000000000
      41700000.0000000000        20.0000000000
      41800000.0000000000        20.0000000000
      41900000.0000000000        20.0000000000
      42000000.0000000000        20.0000000000
      42100000.0000000000        20.0000000000
      42200000.0000000000         0.0000000000
      42200000.0000000000         0.0000000000
      42300000.0000000000         0.0000000000
      42400000.0000000000         0.0000000000
      42500000.0000000000         0.0000000000
      42600000.0000000000         0.0000000000
      42700000.0000000000         0.0000000000
      42800000.0000000000        20.0000000000
      42900000.0000000000        20.0000000000
      42900000.0000000000        20.0000000000
      43000000.0000000000        20.0000000000
      43100000.0000000000        20.0000000000
      43200000.0000000000        20.0000000000
      43300000.0000000000        20.0000000000
      43400000.0000000000         0.0000000000
      43500000.0000000000         0.0000000000
      43500000.0000000000         0.0000000000
      43600000.0000000000         0.0000000000
      43700000.0000000000         0.0000000000
      43800000.0000000000         0.0000000000
      43900000.0000000000         0.0000000000
      44000000.0000000000        20.0000000000
      44100000.0000000000        20.0000000000
      44200000.0000000000        20.0000000000
      44200000.0000000000        20.0000000000
      44300000.0000000000        20.0000000000
      44400000.0000000000        20.0000000000
      44500000.0000000000        20.0000000000
      44600000.0000000000         0.0000000000
      44700000.0000000000         0.0000000000
      44800000.0000000000         0.0000000000
      44800000.0000000000         0.0000000000
      44900000.0000000000         0.0000000000
      45000000.0000000000         0.0000000000
      45100000.0000000000         0.0000000000
      45200000.0000000000        20.0000000000
      45300000.0000000000        20.0000000000
      45400000.0000000000        20.0000000000
      45400000.0000000000        20.0000000000
      45500000.0000000000        20.0000000000
      45600000.0000000000        20.0000000000
      45700000.0000000000        20.0000000000
      45800000.0000000000         0.0000000000
      45900000.0000000000         0.0000000000
      46000000.0000000000         0.0000000000
      46100000.0000000000         0.0000000000
      46100000.0000000000         0.0000000000
      46200000.0000000000         0.0000000000
      46300000.0000000000         0.0000000000
      46400000.0000000000        20.0000000000
      46500000.0000000000        20.0000000000
      46600000.0000000000        20.0000000000
      46700000.0000000000        20.0000000000
      46700000.0000000000        20.0000000000
      46800000.0000000000        20.0000000000
      46900000.0000000000        20.0000000000
      47000000.0000000000         0.0000000000
      47100000.0000000000         0.0000000000
      47200000.0000000000         0.0000000000
      47300000.0000000000         0.0000000000
      47300000.0000000000         0.0000000000
      47400000.0000000000         0.0000000000
      47500000.0000000000         0.0000000000
      47600000.0000000000        20.0000000000
      47700000.0000000000        20.0000000000
      47800000.0000000000        20.0000000000
      47900000.0000000000        20.0000000000
      48000000.0000000000        20.0000000000
      48000000.0000000000        20.0000000000
      48100000.0000000000        20.0000000000
      48200000.0000000000         0.0000000000
      48300000.0000000000         0.0000000000
      48400000.0000000000         0.0000000000
      48500000.0000000000         0.0000000000
      48600000.0000000000         0.0000000000
      48600000.0000000000         0.0000000000
      48700000.0000000000         0.0000000000
      48800000.0000000000        20.0000000000
      48900000.0000000000        20.0000000000
      49000000.0000000000        20.0000000000
      49100000.0000000000        20.0000000000
      49200000.0000000000        20.0000000000
      49200000.0000000000        20.0000000000
      49300000.0000000000        20.0000000000
      49400000.0000000000         0.0000000000
      49500000.0000000000         0.0000000000
      49600000.0000000000         0.0000000000
      49700000.0000000000         0.0000000000
      49800000.0000000000         0.0000000000
      49900000.0000000000         0.0000000000
      49900000.0000000000         0.0000000000
      50000000.0000000000        20.0000000000
      50100000.0000000000        20.0000000000
      50200000.0000000000        20.0000000000
      50300000.0000000000        20.0000000000
      50400000.0000000000        20.0000000000
      50500000.0000000000        20.0000000000
      50500000.0000000000        20.0000000000
      50600000.0000000000         0.0000000000
      50700000.0000000000         0.0000000000
      50800000.0000000000         0.0000000000
      50900000.0000000000         0.0000000000
      51000000.0000000000         0.0000000000
      51100000.0000000000         0.0000000000
      51100000.0000000000         0.0000000000
      51200000.0000000000        20.0000000000
      51300000.0000000000        20.0000000000
      51400000.0000000000        20.0000000000
      51500000.0000000000        20.0000000000
      51600000.0000000000        20.0000000000
      51700000.0000000000        20.0000000000
      51800000.0000000000        20.0000000000
      51800000.0000000000         0.0000000000
      51900000.0000000000         0.0000000000
      52000000.0000000000         0.0000000000
      52100000.0000000000         0.0000000000
      52200000.0000000000         0.0000000000
      52300000.0000000000         0.0000000000
      52400000.0000000000         0.0000000000
      52400000.0000000000        20.0000000000
      52500000.0000000000        20.0000000000
      52600000.0000000000        20.0000000000
      52700000.0000000000        20.0000000000
      52800000.0000000000        20.0000000000
      52900000.0000000000        20.0000000000
      53000000.0000000000        20.0000000000
      53000000.0000000000         0.0000000000
      53100000.0000000000         0.0000000000
      53200000.0000000000         0.0000000000
      53300000.0000000000         0.0000000000
      53400000.0000000000         0.0000000000
      53500000.0000000000         0.0000000000
      53600000.0000000000         0.0000000000
      53700000.0000000000        20.0000000000
      53700000.0000000000        20.0000000000
      53800000.0000000000        20.0000000000
      53900000.0000000000        20.0000000000
      54000000.0000000000        20.0000000000
      54100000.0000000000        20.0000000000
      54200000.0000000000        20.0000000000
      54300000.0000000000         0.0000000000
      54300000.0000000000         0.0000000000
      54400000.0000000000         0.0000000000
      54500000.0000000000         0.0000000000
      54600000.0000000000         0.0000000000
      54700000.0000000000         0.0000000000
      54800000.0000000000         0.0000000000
      54900000.0000000000         0.0000000000
      55000000.0000000000         0.0000000000
      55000000.0000000000         0.0000000000
      55100000.0000000000         0.0000000000
      55200000.0000000000         0.0000000000
      55300000.0000000000         0.0000000000
      55400000.0000000000         0.0000000000
      55500000.0000000000         0.0000000000
      55600000.0000000000         0.0000000000
      55600000.0000000000         0.0000000000
      55700000.0000000000         0.0000000000
      55800000.0000000000         0.0000000000
      55900000.0000000000         0.0000000000
      56000000.0000000000         0.0000000000
      56100000.0000000000         0.0000000000
      56200000.0000000000         0.0000000000
      56200000.0000000000         0.0000000000
      56300000.0000000000         0.0000000000
      56400000.0000000000         0.0000000000
      56500000.0000000000         0.0000000000
      56600000.0000000000         0.0000000000
      56700000.0000000000         0.0000000000
      56800000.0000000000         0.0000000000
      56900000.0000000000         0.0000000000
      56900000.0000000000         0.0000000000
      57000000.0000000000         0.0000000000
      57100000.0000000000         0.0000000000
      57200000.0000000000         0.0000000000
      57300000.0000000000         0.0000000000
      57400000.0000000000         0.0000000000
      57500000.0000000000         0.0000000000
      57500000.0000000000         0.0000000000
      57600000.0000000000         0.0000000000
      57700000.0000000000         0.0000000000
      57800000.0000000000         0.0000000000
      57900000.0000000000         0.0000000000
      58000000.0000000000         0.0000000000
      58100000.0000000000         0.0000000000
      58100000.0000000000         0.0000000000
      58200000.0000000000         0.0000000000
      58300000.0000000000         0.0000000000
      58400000.0000000000         0.0000000000
      58500000.0000000000         0.0000000000
      58600000.0000000000         0.0000000000
      58700000.0000000000         0.0000000000
      58800000.0000000000         0.0000000000
      58800000.0000000000         0.0000000000
      58900000.0000000000         0.0000000000
      59000000.0000000000         0.0000000000
      59100000.0000000000         0.0000000000
      59200000.0000000000         0.0000000000
      59300000.0000000000         0.0000000000
      59400000.0000000000         0.0000000000
      59400000.0000000000         0.0000000000
      59500000.0000000000         0.0000000000
      59600000.0000000000         0.0000000000
      59700000.0000000000         0.0000000000
      59800000.0000000000         0.0000000000
      59900000.0000000000         0.0000000000
      60000000.0000000000         0.0000000000
      60000000.0000000000         0.0000000000
      60100000.0000000000         0.0000000000
      60200000.0000000000         0.0000000000
      60300000.0000000000         0.0000000000
      60400000.0000000000         0.0000000000
      60500000.0000000000         0.0000000000
      60600000.0000000000         0.0000000000
      60700000.0000000000         0.0000000000
      60700000.0000000000         0.0000000000
      60800000.0000000000         0.0000000000
      60900000.0000000000         0.0000000000
      61000000.0000000000         0.0000000000
      61100000.0000000000         0.0000000000
      61200000.0000000000         0.0000000000
      61300000.0000000000         0.0000000000
      61300000.0000000000         0.0000000000
      61400000.0000000000         0.0000000000
      61500000.0000000000         0.0000000000
      61600000.0000000000         0.0000000000
      61700000.0000000000         0.0000000000
      61800000.0000000000         0.0000000000
      61900000.0000000000         0.0000000000
      61900000.0000000000         0.0000000000
      62000000.0000000000         0.0000000000
      62100000.0000000000         0.0000000000
      62200000.0000000000         0.0000000000
      62300000.0000000000         0.0000000000
      62400000.0000000000         0.0000000000
      62500000.0000000000         0.0000000000
      62600000.0000000000         0.0000000000
      62600000.0000000000         0.0000000000
      62700000.0000000000         0.0000000000
      62800000.0000000000         0.0000000000
      62900000.0000000000         0.0000000000
      63000000.0000000000         0.0000000000
      63100000.0000000000         0.0000000000
      63200000.0000000000         0.0000000000
      63200000.0000000000         0.0000000000
      63300000.0000000000         0.0000000000
      63400000.0000000000         0.0000000000
      63500000.0000000000         0.0000000000
      63600000.0000000000         0.0000000000
      63700000.0000000000         0.0000000000
      63800000.0000000000         0.0000000000
      63800000.0000000000         0.0000000000
      63900000.0000000000         0.0000000000
      64000000.0000000000         0.0000000000
      64100000.0000000000         0.0000000000
      64200000.0000000000         0.0000000000
      64300000.0000000000         0.0000000000
      64400000.0000000000         0.0000000000
      64500000.0000000000         0.0000000000
      64500000.0000000000         0.0000000000
      64600000.0000000000         0.0000000000
      64700000.0000000000         0.0000000000
      64800000.0000000000         0.0000000000
      64900000.0000000000         0.0000000000
      65000000.0000000000         0.0000000000
      65100000.0000000000         0.0000000000
      65100000.0000000000         0.0000000000
      65200000.0000000000         0.0000000000
      65300000.0000000000         0.0000000000
      65400000.0000000000         0.0000000000
      65500000.0000000000         0.0000000000



            AREAL INFILTRATION RATE
 READING ON UNIT   19 WITH FORMAT: (10F4.0)            

            1           2           3           4           5           6           7           8           9          10
 ........................................................................................................................
   1   1.0000E-10  2.0000E-10   0.000       0.000       0.000       0.000       0.000       0.000       0.000       0.000    
   2   2.0000E-10  1.0000E-10  2.0000E-10   0.000       0.000      8.0000E-10  8.0000E-10  5.0000E-10   0.000       0.000    
   3    0.000      5.0000E-10  1.0000E-10  1.0000E-10  8.0000E-10  8.0000E-10  5.0000E-10  5.0000E-10   0.000       0.000    
   4   8.0000E-10  5.0000E-10  1.0000E-10  1.0000E-10  1.0000E-10  1.0000E-10  1.0000E-10  1.0000E-10  2.0000E-10   0.000    
   5   8.0000E-10  5.0000E-10  1.0000E-10  1.0000E-10  1.0000E-10  1.0000E-10  1.0000E-10  1.0000E-10  1.0000E-10  1.0000E-10
   6   8.0000E-10  5.0000E-10  5.0000E-10  2.0000E-10  2.0000E-10  1.0000E-10  1.0000E-10  1.0000E-10  1.0000E-10  5.0000E-10
   7   8.0000E-10  5.0000E-10  5.0000E-10  2.0000E-10  2.0000E-10  1.0000E-10  1.0000E-10  2.0000E-10  2.0000E-10   0.000    
   8    0.000      5.0000E-10  5.0000E-10  2.0000E-10  2.0000E-10  1.0000E-10  1.0000E-10  2.0000E-10  5.0000E-10   0.000    
   9    0.000      5.0000E-10  5.0000E-10  2.0000E-10  2.0000E-10  1.0000E-10  1.0000E-10  2.0000E-10  5.0000E-10   0.000    
  10    0.000      5.0000E-10  5.0000E-10  2.0000E-10  2.0000E-10  1.0000E-10  1.0000E-10  2.0000E-10  5.0000E-10  8.0000E-10
  11    0.000      1.0000E-10  1.0000E-10  1.0000E-10  1.0000E-10  1.0000E-10  1.0000E-10  2.0000E-10  5.0000E-10   0.000    
  12   1.0000E-10  1.0000E-10  1.0000E-10  1.0000E-10  1.0000E-10  1.0000E-10  1.0000E-10  1.0000E-10  2.0000E-10   0.000    
  13   1.0000E-10  1.0000E-10  2.0000E-10  2.0000E-10  2.0000E-10  2.0000E-10  2.0000E-10  1.0000E-10  1.0000E-10   0.000    
  14    0.000      2.0000E-10  5.0000E-10  5.0000E-10  5.0000E-10  5.0000E-10  5.0000E-10  2.0000E-10  1.0000E-10   0.000    
  15    0.000       0.000      8.0000E-10  8.0000E-10  8.0000E-10  8.0000E-10   0.000       0.000       0.000       0.000    

                  ET RATE =  1.000000E-08

      ET EXTINCTION DEPTH =   5.00000    

 EXTINCTION WATER CONTENT =  7.000000E-02
 # AWU well list

 PROCESSING WELL LIST

 LAYER   ROW   COL   MAX STRESS RATE         
 --------------------------------------------
      1      1      6      4      -20.00    
      2      1      6      5      -20.00    
      3      1      7      4      -20.00    
      4      1      7      5      -20.00    
      5      1      8      4      -20.00    
      6      1      8      5      -20.00    

 FINISHED READING WELL LIST

      6 WELLS

 PROCESSING AWU STRESS PERIOD DATA
 # AWU stress period

 READING AWU STRESS PERIOD DATA

 READING IRRIGATION STREAM

 READING IRRIGATION WELL

 READING SUPPLEMENTAL WEL

 END PROCESSING AWU STRESS PERIOD DATA OPTIONS
 
 SOLVING FOR HEAD 
                                                   Max.-Head-Change                         Max.-Flux-Residual
  Residual-Control   Outer-Iter.   Inner-Iter.     Column Row Layer    Maximum-Head-Change  Column Row Layer    Maximum-Flux-Residual          L2-NORM 
          0                 1           4             2    2     1      -0.2647761239E+02       3    3    1        -0.3343288571E+01      0.9154319941E+01
          0                 2           4             1    1     1      -0.3274892448E+02       1   13    1        -0.1711836472E+02      0.1781690702E+02
          0                 3           4             6   13     1      -0.1425427901E+01       6   13    1        -0.2360377966E+01      0.2832991012E+01
          0                 4           4             5   13     1      -0.2514218174E+00       5   13    1        -0.5111038107E+00      0.5606516185E+00
          0                 5           3             5   14     1       0.5215882027E-01       5   13    1         0.3677304216E-01      0.4570874088E-01
          0                 6           3             5   14     1      -0.4091680186E-02       5   13    1        -0.2929088553E-02      0.4048129755E-02
          0                 7           2             5   14     1       0.2817801043E-03       5   13    1         0.2049185014E-03      0.3182237614E-03
          0                 8           1             5   14     1      -0.1684834212E-04       5   13    1        -0.1230592511E-04      0.2160027588E-04

    ------------------------------------------------
       NWT REQUIRED            8 OUTER ITERATIONS 
       AND A TOTAL OF         25 INNER ITERATIONS.
    ------------------------------------------------

 OUTPUT CONTROL FOR STRESS PERIOD    1   TIME STEP    1
    PRINT BUDGET
    SAVE BUDGET
 UBDSV2 SAVING "   CONSTANT HEAD" ON UNIT 102 AT TIME STEP     1, STRESS PERIOD   1
 UBDSV1 SAVING "FLOW RIGHT FACE " ON UNIT 102 AT TIME STEP     1, STRESS PERIOD   1
 UBDSV1 SAVING "FLOW FRONT FACE " ON UNIT 102 AT TIME STEP     1, STRESS PERIOD   1

  HEAD DEP BOUNDS   PERIOD    1   STEP     1
 BOUNDARY      1   LAYER   1   ROW    13   COL     1   RATE   -0.284481    
 BOUNDARY      2   LAYER   1   ROW    14   COL     9   RATE    0.285742    



 STREAM LISTING     PERIOD      1   STEP        1

 LAYER ROW COL. STREAM  RCH.  FLOW INTO     FLOW TO   FLOW OUT OF   OVRLND.     DIRECT     STREAM       STREAM     STREAM     STREAM   STREAMBED  STREAMBED
                SEG.NO.  NO.  STRM. RCH.    AQUIFER    STRM. RCH.    RUNOFF     PRECIP       ET          HEAD       DEPTH      WIDTH   CONDCTNC.   GRADIENT

   1    1    1     1     1    5.0000E+00  9.9080E-02   4.9009E+00  0.000E+00  0.000E+00  0.000E+00  1.09378E+03  7.365E-01  5.893E+00  2.652E-02  1.246E+00
   1    2    2     1     2    4.9009E+00  1.5199E-01   4.7489E+00  0.000E+00  0.000E+00  0.000E+00  1.08879E+03  7.320E-01  5.818E+00  4.072E-02  1.244E+00
   1    3    3     1     3    4.7489E+00  1.2820E-01   4.6207E+00  0.000E+00  0.000E+00  0.000E+00  1.08315E+03  7.269E-01  5.733E+00  3.440E-02  1.242E+00
   1    3    4     1     4    4.6207E+00  1.1689E-01   4.5038E+00  0.000E+00  0.000E+00  0.000E+00  1.07813E+03  7.223E-01  5.658E+00  3.140E-02  1.241E+00
   1    4    5     2     1    2.5038E+00  2.5694E-01   2.2469E+00  0.000E+00  0.000E+00  0.000E+00  1.07223E+03  2.942E-01  1.200E+01  7.800E-02  1.098E+00
   1    5    6     2     2    2.2469E+00  1.9662E-01   2.0503E+00  0.000E+00  0.000E+00  0.000E+00  1.06679E+03  2.770E-01  1.200E+01  6.000E-02  1.092E+00
   1    6    6     2     3    2.0503E+00  1.9569E-01   1.8546E+00  0.000E+00  0.000E+00  0.000E+00  1.06205E+03  2.615E-01  1.200E+01  6.000E-02  1.087E+00
   1    7    6     2     4    1.8546E+00  1.9473E-01   1.6599E+00  0.000E+00  0.000E+00  0.000E+00  1.05732E+03  2.455E-01  1.200E+01  6.000E-02  1.082E+00
   1    8    6     2     5    1.6599E+00  1.9373E-01   1.4661E+00  0.000E+00  0.000E+00  0.000E+00  1.05259E+03  2.288E-01  1.200E+01  6.000E-02  1.076E+00
   1    3    5     3     1    2.0000E+00  2.8252E-01   1.7175E+00  0.000E+00  0.000E+00  0.000E+00  1.07555E+03  1.909E+00  9.636E+00  7.227E-02  1.955E+00
   1    3    6     3     2    1.7175E+00  2.4905E-01   1.4684E+00  0.000E+00  0.000E+00  0.000E+00  1.07264E+03  1.727E+00  8.909E+00  6.682E-02  1.864E+00
   1    3    7     3     3    1.4684E+00  1.9718E-01   1.2712E+00  0.000E+00  0.000E+00  0.000E+00  1.06987E+03  1.555E+00  8.218E+00  5.547E-02  1.777E+00
   1    4    8     3     4    1.2712E+00  2.2567E-01   1.0456E+00  0.000E+00  0.000E+00  0.000E+00  1.06682E+03  1.364E+00  7.455E+00  6.709E-02  1.682E+00
   1    5    8     3     5    1.0456E+00  1.5790E-01   8.8768E-01  0.000E+00  0.000E+00  0.000E+00  1.06362E+03  1.164E+00  6.655E+00  4.991E-02  1.582E+00
   1    6    8     3     6    8.8768E-01  5.5980E-02   8.3170E-01  0.000E+00  0.000E+00  0.000E+00  1.06158E+03  1.036E+00  6.145E+00  1.844E-02  1.518E+00
   1    5   10     4     1    1.0000E+01  9.0919E-02   9.9091E+00  0.000E+00  0.000E+00  0.000E+00  1.07836E+03  6.368E-01  1.000E+01  2.500E-02  1.212E+00
   1    5    9     4     2    9.9091E+00  1.8158E-01   9.7275E+00  0.000E+00  0.000E+00  0.000E+00  1.07154E+03  6.315E-01  1.000E+01  5.000E-02  1.211E+00
   1    6    8     4     3    9.7275E+00  1.2689E-01   9.6006E+00  0.000E+00  0.000E+00  0.000E+00  1.06381E+03  6.256E-01  1.000E+01  3.500E-02  1.209E+00
   1    6    8     5     1    1.0432E+01  2.2686E-01   1.0205E+01  0.000E+00  0.000E+00  0.000E+00  1.05868E+03  6.790E-01  1.542E+01  6.166E-02  1.226E+00
   1    7    7     5     2    1.0205E+01  2.7894E-01   9.9265E+00  0.000E+00  0.000E+00  0.000E+00  1.05417E+03  6.732E-01  1.519E+01  7.594E-02  1.224E+00
   1    8    7     5     3    9.9265E+00  1.9221E-01   9.7343E+00  0.000E+00  0.000E+00  0.000E+00  1.04992E+03  6.676E-01  1.497E+01  5.241E-02  1.223E+00
   1    8    6     5     4    9.7343E+00  1.3577E-01   9.5985E+00  0.000E+00  0.000E+00  0.000E+00  1.04691E+03  6.637E-01  1.482E+01  3.706E-02  1.221E+00
   1    9    6     6     1    1.1065E+01  2.2465E-01   1.0840E+01  0.000E+00  0.000E+00  0.000E+00  1.04347E+03  7.442E-01  1.200E+01  6.000E-02  1.248E+00
   1   10    7     6     2    1.0840E+01  2.2410E-01   1.0616E+01  0.000E+00  0.000E+00  0.000E+00  1.03892E+03  7.350E-01  1.200E+01  6.000E-02  1.245E+00
   1   11    7     6     3    1.0616E+01  2.2354E-01   1.0392E+01  0.000E+00  0.000E+00  0.000E+00  1.03436E+03  7.257E-01  1.200E+01  6.000E-02  1.242E+00
   1   12    7     6     4    1.0392E+01  2.2299E-01   1.0169E+01  0.000E+00  0.000E+00  0.000E+00  1.02981E+03  7.165E-01  1.200E+01  6.000E-02  1.239E+00
   1   13    7     6     5    1.0169E+01 -9.5297E-02   1.0265E+01  0.000E+00  0.000E+00  0.000E+00  1.02662E+03  7.138E-01  1.200E+01  2.400E-01 -1.324E-01
   1   14    9     7     1    1.5000E+02  1.3356E+00   1.4866E+02  0.000E+00  0.000E+00  0.000E+00  1.03987E+03  2.288E+00  5.529E+01  5.593E-01  7.960E-01
   1   13    8     7     2    1.4866E+02  1.8417E+00   1.4682E+02  0.000E+00  0.000E+00  0.000E+00  1.03478E+03  2.279E+00  5.526E+01  6.148E-01  9.986E-01
   1   13    7     7     3    1.4682E+02  1.4909E+00   1.4533E+02  0.000E+00  0.000E+00  0.000E+00  1.02969E+03  2.270E+00  5.522E+01  5.584E-01  8.899E-01
   1   13    6     8     1    1.5560E+02  8.6429E-01   1.5473E+02  0.000E+00  0.000E+00  0.000E+00  1.02473E+03  2.853E+00  4.137E+01  4.215E-01  6.835E-01
   1   13    5     8     2    1.5473E+02  1.5160E-01   1.5458E+02  0.000E+00  0.000E+00  0.000E+00  1.01847E+03  2.849E+00  4.132E+01  4.210E-01  1.200E-01
   1   13    4     8     3    1.5458E+02 -2.4372E+00   1.5702E+02  0.000E+00  0.000E+00  0.000E+00  1.01223E+03  2.857E+00  4.143E+01  4.222E+00 -1.924E-01
   1   13    3     8     4    1.5702E+02 -3.5513E+00   1.6057E+02  0.000E+00  0.000E+00  0.000E+00  1.00600E+03  2.878E+00  4.173E+01  4.252E+00 -2.784E-01
   1   13    2     8     5    1.6057E+02 -2.4851E+00   1.6305E+02  0.000E+00  0.000E+00  0.000E+00  9.99773E+02  2.898E+00  4.202E+01  4.282E+00 -1.934E-01
   1   13    1     8     6    1.6305E+02 -1.8047E+00   1.6486E+02  0.000E+00  0.000E+00  0.000E+00  9.94787E+02  2.912E+00  4.223E+01  2.582E+00 -2.330E-01
   1    6    8     9     1    0.0000E+00  0.0000E+00   0.0000E+00  0.000E+00  0.000E+00  0.000E+00  1.07850E+03  0.000E+00  4.000E+00  0.000E+00  1.000E+00



 UBDSV3 SAVING "           GW ET" ON UNIT  61 AT TIME STEP     1, STRESS PERIOD   1
 UBDSV3 SAVING "    UZF RECHARGE" ON UNIT  61 AT TIME STEP     1, STRESS PERIOD   1
 UBDSV3 SAVING " SURFACE LEAKAGE" ON UNIT  61 AT TIME STEP     1, STRESS PERIOD   1
 UBDSV3 SAVING "       HORT+DUNN" ON UNIT  61 AT TIME STEP     1, STRESS PERIOD   1
 UBDSV3 SAVING "  STORAGE CHANGE" ON UNIT  61 AT TIME STEP     1, STRESS PERIOD   1


UNSATURATED ZONE PACKAGE VOLUMETRIC BUDGET FOR  TIME STEP     1 STRESS PERIOD    1
  ------------------------------------------------------------------------------



     CUMULATIVE VOLUMES      L**3       RATES FOR THIS TIME STEP      L**3/T
     ------------------                 ------------------------

           IN:                                      IN:
           ---                                      ---
        INFILTRATION =       73224.0000          INFILTRATION =           0.8475

          OUT:                                     OUT:
          ----                                     ----
              UZF ET =       0.0000E+00                UZF ET =       0.0000E+00
        UZF RECHARGE =       73224.0000          UZF RECHARGE =           0.8475

            IN - OUT =       0.0000E+00              IN - OUT =       0.0000E+00

          STORAGE:                                 STORAGE:
          --------                                 --------
      STORAGE CHANGE =       0.0000E+00        STORAGE CHANGE =       0.0000E+00

 PERCENT DISCREPANCY IS DIFFERENCE BETWEEN IN-OUT MINUS CHANGE IN STORAGE
 DIVIDED BY THE AVERAGE OF IN AND OUT TIMES 100

 PERCENT DISCREPANCY =           0.00     PERCENT DISCREPANCY =           0.00






1
  VOLUMETRIC BUDGET FOR ENTIRE MODEL AT END OF TIME STEP    1, STRESS PERIOD   1
  ------------------------------------------------------------------------------

     CUMULATIVE VOLUMES      L**3       RATES FOR THIS TIME STEP      L**3/T
     ------------------                 ------------------------

           IN:                                      IN:
           ---                                      ---
             STORAGE     =           0.0000               STORAGE     =           0.0000
       CONSTANT HEAD     =           0.0000         CONSTANT HEAD     =           0.0000
     HEAD DEP BOUNDS     =       24688.1504       HEAD DEP BOUNDS     =           0.2857
      STREAM LEAKAGE     =      908470.8750        STREAM LEAKAGE     =          10.5147
        UZF RECHARGE     =       73223.9531          UZF RECHARGE     =           0.8475
               GW ET     =           0.0000                 GW ET     =           0.0000
     SURFACE LEAKAGE     =           0.0000       SURFACE LEAKAGE     =           0.0000

                TOTAL IN =     1006382.9375                  TOTAL IN =          11.6480

          OUT:                                     OUT:
          ----                                     ----
             STORAGE     =           0.0000               STORAGE     =           0.0000
       CONSTANT HEAD     =           0.0000         CONSTANT HEAD     =           0.0000
     HEAD DEP BOUNDS     =       24579.1270       HEAD DEP BOUNDS     =           0.2845
      STREAM LEAKAGE     =      896273.3750        STREAM LEAKAGE     =          10.3735
        UZF RECHARGE     =           0.0000          UZF RECHARGE     =           0.0000
               GW ET     =       85530.2812                 GW ET     =           0.9899
     SURFACE LEAKAGE     =           0.0000       SURFACE LEAKAGE     =           0.0000

               TOTAL OUT =     1006382.7500                 TOTAL OUT =          11.6479

                IN - OUT =           0.1875                  IN - OUT =       2.8610E-06

     PERCENT DISCREPANCY =           0.00         PERCENT DISCREPANCY =           0.00






         TIME SUMMARY AT END OF TIME STEP    1 IN STRESS PERIOD    1
                    SECONDS     MINUTES      HOURS       DAYS        YEARS
                    -----------------------------------------------------------
   TIME STEP LENGTH  86400.      1440.0      24.000      1.0000     2.73785E-03
 STRESS PERIOD TIME  86400.      1440.0      24.000      1.0000     2.73785E-03
         TOTAL TIME  86400.      1440.0      24.000      1.0000     2.73785E-03
1
1
                            STRESS PERIOD NO.    2, LENGTH =   2628000.    
                            -----------------------------------------------

                              NUMBER OF TIME STEPS =    30

                               MULTIPLIER FOR DELT =     1.000

                            INITIAL TIME STEP SIZE =   87600.00    

 REUSING NON-PARAMETER GHB CELLS FROM LAST STRESS PERIOD

      2 GHB CELLS

 REUSING STREAM SEGMENT DATA FROM LAST STRESS PERIOD



            AREAL INFILTRATION RATE
 READING ON UNIT   19 WITH FORMAT: (10F4.0)            

            1           2           3           4           5           6           7           8           9          10
 ........................................................................................................................
   1    0.000       0.000       0.000       0.000       0.000       0.000       0.000       0.000       0.000       0.000    
   2    0.000       0.000       0.000       0.000       0.000       0.000       0.000       0.000       0.000       0.000    
   3    0.000       0.000       0.000       0.000       0.000       0.000       0.000       0.000       0.000       0.000    
   4    0.000       0.000       0.000       0.000       0.000       0.000       0.000       0.000       0.000       0.000    
   5    0.000       0.000       0.000       0.000       0.000       0.000       0.000       0.000       0.000       0.000    
   6    0.000       0.000       0.000       0.000       0.000       0.000       0.000       0.000       0.000       0.000    
   7    0.000       0.000       0.000       0.000       0.000       0.000       0.000       0.000       0.000       0.000    
   8    0.000       0.000       0.000       0.000       0.000       0.000       0.000       0.000       0.000       0.000    
   9    0.000       0.000       0.000       0.000       0.000       0.000       0.000       0.000       0.000       0.000    
  10    0.000       0.000       0.000       0.000       0.000       0.000       0.000       0.000       0.000       0.000    
  11    0.000       0.000       0.000       0.000       0.000       0.000       0.000       0.000       0.000       0.000    
  12    0.000       0.000       0.000       0.000       0.000       0.000       0.000       0.000       0.000       0.000    
  13    0.000       0.000       0.000       0.000       0.000       0.000       0.000       0.000       0.000       0.000    
  14    0.000       0.000       0.000       0.000       0.000       0.000       0.000       0.000       0.000       0.000    
  15    0.000       0.000       0.000       0.000       0.000       0.000       0.000       0.000       0.000       0.000    

                  ET RATE =  1.000000E-10

 USING ET EXTINCTION DEPTH FROM PREVIOUS STRESS PERIOD. CURRENT PERIOD IS:       2

 USING EXTINCTION WATER CONTENT FROM PREVIOUS STRESS PERIOD. CURRENT PERIOD IS:       2

 PROCESSING AWU STRESS PERIOD DATA

 READING AWU STRESS PERIOD DATA

 READING IRRIGATION STREAM

 READING IRRIGATION WELL

 READING SUPPLEMENTAL WEL

 END PROCESSING AWU STRESS PERIOD DATA OPTIONS
 
 SOLVING FOR HEAD 
                                                   Max.-Head-Change                         Max.-Flux-Residual
  Residual-Control   Outer-Iter.   Inner-Iter.     Column Row Layer    Maximum-Head-Change  Column Row Layer    Maximum-Flux-Residual          L2-NORM 
          0                 1           2             3   13     1       0.3696578719E-02       3   13    1         0.2097686373E+00      0.4206651234E+00
          0                 2           2             4   13     1      -0.1767431274E-03       4   13    1        -0.1012060834E-01      0.2134797510E-01
          0                 3           1             4   13     1       0.6854388612E-05       4   13    1         0.3967618177E-03      0.1123057166E-02

    ------------------------------------------------
       NWT REQUIRED            3 OUTER ITERATIONS 
       AND A TOTAL OF          5 INNER ITERATIONS.
    ------------------------------------------------

 NO OUTPUT CONTROL FOR STRESS PERIOD    2   TIME STEP    1
 
 SOLVING FOR HEAD 
                                                   Max.-Head-Change                         Max.-Flux-Residual
  Residual-Control   Outer-Iter.   Inner-Iter.     Column Row Layer    Maximum-Head-Change  Column Row Layer    Maximum-Flux-Residual          L2-NORM 
          0                 1           2             1   13     1       0.3401096660E-02       3   13    1         0.1916558409E+00      0.3953025528E+00
          0                 2           2             4   13     1      -0.1614666524E-03       4   13    1        -0.9239194117E-02      0.2041506256E-01
          0                 3           1             6    2     1      -0.6806931513E-05       4   13    1         0.3611620587E-03      0.1117780244E-02

    ------------------------------------------------
       NWT REQUIRED            3 OUTER ITERATIONS 
       AND A TOTAL OF          5 INNER ITERATIONS.
    ------------------------------------------------

 NO OUTPUT CONTROL FOR STRESS PERIOD    2   TIME STEP    2
 
 SOLVING FOR HEAD 
                                                   Max.-Head-Change                         Max.-Flux-Residual
  Residual-Control   Outer-Iter.   Inner-Iter.     Column Row Layer    Maximum-Head-Change  Column Row Layer    Maximum-Flux-Residual          L2-NORM 
          0                 1           2             1   13     1       0.3237511567E-02       1   13    1         0.1765917254E+00      0.3721059266E+00
          0                 2           2             4   13     1      -0.1476369231E-03       4   13    1        -0.8441374482E-02      0.1942106552E-01
          0                 3           1             6    2     1      -0.6805970288E-05       4   13    1         0.3296540672E-03      0.1090866677E-02

    ------------------------------------------------
       NWT REQUIRED            3 OUTER ITERATIONS 
       AND A TOTAL OF          5 INNER ITERATIONS.
    ------------------------------------------------

 NO OUTPUT CONTROL FOR STRESS PERIOD    2   TIME STEP    3
 
 SOLVING FOR HEAD 
                                                   Max.-Head-Change                         Max.-Flux-Residual
  Residual-Control   Outer-Iter.   Inner-Iter.     Column Row Layer    Maximum-Head-Change  Column Row Layer    Maximum-Flux-Residual          L2-NORM 
          0                 1           2             1   13     1       0.3081531367E-02       1   13    1         0.1680859857E+00      0.3509306254E+00
          0                 2           2             1   13     1      -0.1374722070E-03       4   13    1        -0.7717880673E-02      0.1852340209E-01
          0                 3           1             6    2     1      -0.6805911102E-05       4   13    1         0.2999044009E-03      0.1065817568E-02

    ------------------------------------------------
       NWT REQUIRED            3 OUTER ITERATIONS 
       AND A TOTAL OF          5 INNER ITERATIONS.
    ------------------------------------------------

 NO OUTPUT CONTROL FOR STRESS PERIOD    2   TIME STEP    4
 
 SOLVING FOR HEAD 
                                                   Max.-Head-Change                         Max.-Flux-Residual
  Residual-Control   Outer-Iter.   Inner-Iter.     Column Row Layer    Maximum-Head-Change  Column Row Layer    Maximum-Flux-Residual          L2-NORM 
          0                 1           2             1   13     1       0.2932810661E-02       1   13    1         0.1599762655E+00      0.3315843080E+00
          0                 2           2             5   13     1      -0.1320684142E-03       1   13    1        -0.7217770131E-02      0.1771408701E-01
          0                 3           1             6    2     1      -0.6805790519E-05       4   13    1         0.2751828979E-03      0.1045480128E-02

    ------------------------------------------------
       NWT REQUIRED            3 OUTER ITERATIONS 
       AND A TOTAL OF          5 INNER ITERATIONS.
    ------------------------------------------------

 NO OUTPUT CONTROL FOR STRESS PERIOD    2   TIME STEP    5
 
 SOLVING FOR HEAD 
                                                   Max.-Head-Change                         Max.-Flux-Residual
  Residual-Control   Outer-Iter.   Inner-Iter.     Column Row Layer    Maximum-Head-Change  Column Row Layer    Maximum-Flux-Residual          L2-NORM 
          0                 1           2             1   13     1       0.2791038756E-02       1   13    1         0.1522455764E+00      0.3138945222E+00
          0                 2           2             5   13     1      -0.1277550415E-03       5   13    1        -0.6921857433E-02      0.1698043869E-01
          0                 3           1             6    2     1      -0.6805614433E-05       5   13    1         0.2581843253E-03      0.1024881584E-02

    ------------------------------------------------
       NWT REQUIRED            3 OUTER ITERATIONS 
       AND A TOTAL OF          5 INNER ITERATIONS.
    ------------------------------------------------

 NO OUTPUT CONTROL FOR STRESS PERIOD    2   TIME STEP    6
 
 SOLVING FOR HEAD 
                                                   Max.-Head-Change                         Max.-Flux-Residual
  Residual-Control   Outer-Iter.   Inner-Iter.     Column Row Layer    Maximum-Head-Change  Column Row Layer    Maximum-Flux-Residual          L2-NORM 
          0                 1           2             5   13     1       0.2664148599E-02       1   13    1         0.1448775251E+00      0.2977110431E+00
          0                 2           2             5   13     1      -0.1235392899E-03       5   13    1        -0.6695297678E-02      0.1632040511E-01
          0                 3           1             6    2     1      -0.6804423831E-05       5   13    1         0.2498387071E-03      0.1007476597E-02

    ------------------------------------------------
       NWT REQUIRED            3 OUTER ITERATIONS 
       AND A TOTAL OF          5 INNER ITERATIONS.
    ------------------------------------------------

 NO OUTPUT CONTROL FOR STRESS PERIOD    2   TIME STEP    7
 
 SOLVING FOR HEAD 
                                                   Max.-Head-Change                         Max.-Flux-Residual
  Residual-Control   Outer-Iter.   Inner-Iter.     Column Row Layer    Maximum-Head-Change  Column Row Layer    Maximum-Flux-Residual          L2-NORM 
          0                 1           2             5   13     1       0.2575119757E-02       5   13    1         0.1382725899E+00      0.2828850668E+00
          0                 2           2             5   13     1      -0.1194338427E-03       5   13    1        -0.6474332130E-02      0.1572350968E-01
          0                 3           1             6    2     1      -0.6804137232E-05       5   13    1         0.2416274033E-03      0.9929437810E-03

    ------------------------------------------------
       NWT REQUIRED            3 OUTER ITERATIONS 
       AND A TOTAL OF          5 INNER ITERATIONS.
    ------------------------------------------------

 NO OUTPUT CONTROL FOR STRESS PERIOD    2   TIME STEP    8
 
 SOLVING FOR HEAD 
                                                   Max.-Head-Change                         Max.-Flux-Residual
  Residual-Control   Outer-Iter.   Inner-Iter.     Column Row Layer    Maximum-Head-Change  Column Row Layer    Maximum-Flux-Residual          L2-NORM 
          0                 1           2             5   13     1       0.2488543378E-02       5   13    1         0.1336469529E+00      0.2692963391E+00
          0                 2           2             5   13     1      -0.1154373081E-03       5   13    1        -0.6258943280E-02      0.1518392912E-01
          0                 3           1             6    2     1      -0.6803794639E-05       5   13    1         0.2336898849E-03      0.9787907708E-03

    ------------------------------------------------
       NWT REQUIRED            3 OUTER ITERATIONS 
       AND A TOTAL OF          5 INNER ITERATIONS.
    ------------------------------------------------

 NO OUTPUT CONTROL FOR STRESS PERIOD    2   TIME STEP    9
 
 SOLVING FOR HEAD 
                                                   Max.-Head-Change                         Max.-Flux-Residual
  Residual-Control   Outer-Iter.   Inner-Iter.     Column Row Layer    Maximum-Head-Change  Column Row Layer    Maximum-Flux-Residual          L2-NORM 
          0                 1           2             5   13     1       0.2404557902E-02       5   13    1         0.1291549363E+00      0.2568222217E+00
          0                 2           2             5   13     1      -0.1115559646E-03       5   13    1        -0.6049512673E-02      0.1469575504E-01
          0                 3           1             6    2     1      -0.6802442686E-05       5   13    1         0.2259032783E-03      0.9666343373E-03

    ------------------------------------------------
       NWT REQUIRED            3 OUTER ITERATIONS 
       AND A TOTAL OF          5 INNER ITERATIONS.
    ------------------------------------------------

 NO OUTPUT CONTROL FOR STRESS PERIOD    2   TIME STEP   10
 
 SOLVING FOR HEAD 
                                                   Max.-Head-Change                         Max.-Flux-Residual
  Residual-Control   Outer-Iter.   Inner-Iter.     Column Row Layer    Maximum-Head-Change  Column Row Layer    Maximum-Flux-Residual          L2-NORM 
          0                 1           2             5   13     1       0.2323166109E-02       5   13    1         0.1247974248E+00      0.2453645928E+00
          0                 2           1             5   13     1      -0.1077913798E-03       5   13    1        -0.5846168620E-02      0.1425314255E-01
          0                 3           1             6    2     1      -0.6801995228E-05       5   13    1         0.2183543993E-03      0.9557496937E-03

    ------------------------------------------------
       NWT REQUIRED            3 OUTER ITERATIONS 
       AND A TOTAL OF          4 INNER ITERATIONS.
    ------------------------------------------------

 NO OUTPUT CONTROL FOR STRESS PERIOD    2   TIME STEP   11
 
 SOLVING FOR HEAD 
                                                   Max.-Head-Change                         Max.-Flux-Residual
  Residual-Control   Outer-Iter.   Inner-Iter.     Column Row Layer    Maximum-Head-Change  Column Row Layer    Maximum-Flux-Residual          L2-NORM 
          0                 1           2             5   13     1       0.2244240198E-02       5   13    1         0.1205680286E+00      0.2348343713E+00
          0                 2           1             5   13     1      -0.1041356256E-03       5   13    1        -0.5648513769E-02      0.1385215385E-01
          0                 3           1             6    2     1      -0.6801492267E-05       5   13    1         0.2109798281E-03      0.9461263838E-03

    ------------------------------------------------
       NWT REQUIRED            3 OUTER ITERATIONS 
       AND A TOTAL OF          4 INNER ITERATIONS.
    ------------------------------------------------

 NO OUTPUT CONTROL FOR STRESS PERIOD    2   TIME STEP   12
 
 SOLVING FOR HEAD 
                                                   Max.-Head-Change                         Max.-Flux-Residual
  Residual-Control   Outer-Iter.   Inner-Iter.     Column Row Layer    Maximum-Head-Change  Column Row Layer    Maximum-Flux-Residual          L2-NORM 
          0                 1           2             5   13     1       0.2167878765E-02       5   13    1         0.1164730159E+00      0.2251400555E+00
          0                 2           1             5   13     1      -0.1005982894E-03       5   13    1        -0.5457104053E-02      0.1348742154E-01
          0                 3           1             6    2     1      -0.6800939944E-05       5   13    1         0.2038827147E-03      0.9410502686E-03

    ------------------------------------------------
       NWT REQUIRED            3 OUTER ITERATIONS 
       AND A TOTAL OF          4 INNER ITERATIONS.
    ------------------------------------------------

 NO OUTPUT CONTROL FOR STRESS PERIOD    2   TIME STEP   13
 
 SOLVING FOR HEAD 
                                                   Max.-Head-Change                         Max.-Flux-Residual
  Residual-Control   Outer-Iter.   Inner-Iter.     Column Row Layer    Maximum-Head-Change  Column Row Layer    Maximum-Flux-Residual          L2-NORM 
          0                 1           2             5   13     1       0.2094049302E-02       5   13    1         0.1125109161E+00      0.2162179466E+00
          0                 2           1             5   13     1      -0.9717235685E-04       5   13    1        -0.5271564899E-02      0.1315591072E-01

    ------------------------------------------------
       NWT REQUIRED            2 OUTER ITERATIONS 
       AND A TOTAL OF          3 INNER ITERATIONS.
    ------------------------------------------------

 NO OUTPUT CONTROL FOR STRESS PERIOD    2   TIME STEP   14
 
 SOLVING FOR HEAD 
                                                   Max.-Head-Change                         Max.-Flux-Residual
  Residual-Control   Outer-Iter.   Inner-Iter.     Column Row Layer    Maximum-Head-Change  Column Row Layer    Maximum-Flux-Residual          L2-NORM 
          0                 1           2             5   13     1       0.2022855781E-02       5   13    1         0.1086878112E+00      0.2080052592E+00
          0                 2           1             5   13     1      -0.9386884365E-04       5   13    1        -0.5092533374E-02      0.1285578701E-01

    ------------------------------------------------
       NWT REQUIRED            2 OUTER ITERATIONS 
       AND A TOTAL OF          3 INNER ITERATIONS.
    ------------------------------------------------

 NO OUTPUT CONTROL FOR STRESS PERIOD    2   TIME STEP   15
 
 SOLVING FOR HEAD 
                                                   Max.-Head-Change                         Max.-Flux-Residual
  Residual-Control   Outer-Iter.   Inner-Iter.     Column Row Layer    Maximum-Head-Change  Column Row Layer    Maximum-Flux-Residual          L2-NORM 
          0                 1           2             5   13     1       0.1954095016E-02       5   13    1         0.1049934205E+00      0.2004222478E+00
          0                 2           1             5   13     1      -0.9067573738E-04       5   13    1        -0.4919387788E-02      0.1258201132E-01

    ------------------------------------------------
       NWT REQUIRED            2 OUTER ITERATIONS 
       AND A TOTAL OF          3 INNER ITERATIONS.
    ------------------------------------------------

 NO OUTPUT CONTROL FOR STRESS PERIOD    2   TIME STEP   16
 
 SOLVING FOR HEAD 
                                                   Max.-Head-Change                         Max.-Flux-Residual
  Residual-Control   Outer-Iter.   Inner-Iter.     Column Row Layer    Maximum-Head-Change  Column Row Layer    Maximum-Flux-Residual          L2-NORM 
          0                 1           2             5   13     1       0.1887600453E-02       5   13    1         0.1014188941E+00      0.1934124225E+00
          0                 2           1             5   13     1      -0.8758942569E-04       5   13    1        -0.4751921592E-02      0.1233265910E-01

    ------------------------------------------------
       NWT REQUIRED            2 OUTER ITERATIONS 
       AND A TOTAL OF          3 INNER ITERATIONS.
    ------------------------------------------------

 NO OUTPUT CONTROL FOR STRESS PERIOD    2   TIME STEP   17
 
 SOLVING FOR HEAD 
                                                   Max.-Head-Change                         Max.-Flux-Residual
  Residual-Control   Outer-Iter.   Inner-Iter.     Column Row Layer    Maximum-Head-Change  Column Row Layer    Maximum-Flux-Residual          L2-NORM 
          0                 1           2             5   13     1       0.1823551024E-02       5   13    1         0.9797428306E-01      0.1869380340E+00
          0                 2           1             5   13     1      -0.8460910064E-04       5   13    1        -0.4590154777E-02      0.1210385788E-01

    ------------------------------------------------
       NWT REQUIRED            2 OUTER ITERATIONS 
       AND A TOTAL OF          3 INNER ITERATIONS.
    ------------------------------------------------

 NO OUTPUT CONTROL FOR STRESS PERIOD    2   TIME STEP   18
 
 SOLVING FOR HEAD 
                                                   Max.-Head-Change                         Max.-Flux-Residual
  Residual-Control   Outer-Iter.   Inner-Iter.     Column Row Layer    Maximum-Head-Change  Column Row Layer    Maximum-Flux-Residual          L2-NORM 
          0                 1           2             5   13     1       0.1761650071E-02       5   13    1         0.9464399785E-01      0.1809401892E+00
          0                 2           1             5   13     1      -0.8173372106E-04       5   13    1        -0.4434006013E-02      0.1189533729E-01

    ------------------------------------------------
       NWT REQUIRED            2 OUTER ITERATIONS 
       AND A TOTAL OF          3 INNER ITERATIONS.
    ------------------------------------------------

 NO OUTPUT CONTROL FOR STRESS PERIOD    2   TIME STEP   19
 
 SOLVING FOR HEAD 
                                                   Max.-Head-Change                         Max.-Flux-Residual
  Residual-Control   Outer-Iter.   Inner-Iter.     Column Row Layer    Maximum-Head-Change  Column Row Layer    Maximum-Flux-Residual          L2-NORM 
          0                 1           2             5   13     1       0.1702072523E-02       5   13    1         0.9143756703E-01      0.1753913200E+00
          0                 2           1             5   13     1      -0.7896038080E-04       5   13    1        -0.4283346336E-02      0.1170407601E-01

    ------------------------------------------------
       NWT REQUIRED            2 OUTER ITERATIONS 
       AND A TOTAL OF          3 INNER ITERATIONS.
    ------------------------------------------------

 NO OUTPUT CONTROL FOR STRESS PERIOD    2   TIME STEP   20
 
 SOLVING FOR HEAD 
                                                   Max.-Head-Change                         Max.-Flux-Residual
  Residual-Control   Outer-Iter.   Inner-Iter.     Column Row Layer    Maximum-Head-Change  Column Row Layer    Maximum-Flux-Residual          L2-NORM 
          0                 1           2             5   13     1       0.1644516216E-02       5   13    1         0.8833882735E-01      0.1702424313E+00
          0                 2           1             5   13     1      -0.7628211602E-04       5   13    1        -0.4137799461E-02      0.1152829946E-01

    ------------------------------------------------
       NWT REQUIRED            2 OUTER ITERATIONS 
       AND A TOTAL OF          3 INNER ITERATIONS.
    ------------------------------------------------

 NO OUTPUT CONTROL FOR STRESS PERIOD    2   TIME STEP   21
 
 SOLVING FOR HEAD 
                                                   Max.-Head-Change                         Max.-Flux-Residual
  Residual-Control   Outer-Iter.   Inner-Iter.     Column Row Layer    Maximum-Head-Change  Column Row Layer    Maximum-Flux-Residual          L2-NORM 
          0                 1           2             5   13     1       0.1589156394E-02       5   13    1         0.8535777072E-01      0.1654695460E+00
          0                 2           1             6    2     1       0.7615129943E-04       5   13    1        -0.3997784326E-02      0.1136718301E-01

    ------------------------------------------------
       NWT REQUIRED            2 OUTER ITERATIONS 
       AND A TOTAL OF          3 INNER ITERATIONS.
    ------------------------------------------------

 NO OUTPUT CONTROL FOR STRESS PERIOD    2   TIME STEP   22
 
 SOLVING FOR HEAD 
                                                   Max.-Head-Change                         Max.-Flux-Residual
  Residual-Control   Outer-Iter.   Inner-Iter.     Column Row Layer    Maximum-Head-Change  Column Row Layer    Maximum-Flux-Residual          L2-NORM 
          0                 1           2             5   13     1       0.1535800541E-02       5   13    1         0.8248385413E-01      0.1610370749E+00
          0                 2           1             6    2     1       0.7612969347E-04       5   13    1        -0.3862687376E-02      0.1121816965E-01

    ------------------------------------------------
       NWT REQUIRED            2 OUTER ITERATIONS 
       AND A TOTAL OF          3 INNER ITERATIONS.
    ------------------------------------------------

 NO OUTPUT CONTROL FOR STRESS PERIOD    2   TIME STEP   23
 
 SOLVING FOR HEAD 
                                                   Max.-Head-Change                         Max.-Flux-Residual
  Residual-Control   Outer-Iter.   Inner-Iter.     Column Row Layer    Maximum-Head-Change  Column Row Layer    Maximum-Flux-Residual          L2-NORM 
          0                 1           2             5   13     1       0.1484386343E-02       5   13    1         0.7971393987E-01      0.1569162510E+00
          0                 2           1             6    2     1       0.7611834426E-04       5   13    1        -0.3732570970E-02      0.1108184930E-01

    ------------------------------------------------
       NWT REQUIRED            2 OUTER ITERATIONS 
       AND A TOTAL OF          3 INNER ITERATIONS.
    ------------------------------------------------

 NO OUTPUT CONTROL FOR STRESS PERIOD    2   TIME STEP   24
 
 SOLVING FOR HEAD 
                                                   Max.-Head-Change                         Max.-Flux-Residual
  Residual-Control   Outer-Iter.   Inner-Iter.     Column Row Layer    Maximum-Head-Change  Column Row Layer    Maximum-Flux-Residual          L2-NORM 
          0                 1           2             5   13     1       0.1434844911E-02       5   13    1         0.7704452613E-01      0.1530831161E+00
          0                 2           1             6    2     1       0.7610649342E-04       5   13    1        -0.3607032716E-02      0.1095456965E-01

    ------------------------------------------------
       NWT REQUIRED            2 OUTER ITERATIONS 
       AND A TOTAL OF          3 INNER ITERATIONS.
    ------------------------------------------------

 NO OUTPUT CONTROL FOR STRESS PERIOD    2   TIME STEP   25
 
 SOLVING FOR HEAD 
                                                   Max.-Head-Change                         Max.-Flux-Residual
  Residual-Control   Outer-Iter.   Inner-Iter.     Column Row Layer    Maximum-Head-Change  Column Row Layer    Maximum-Flux-Residual          L2-NORM 
          0                 1           2             5   13     1       0.1387113230E-02       5   13    1         0.7447220523E-01      0.1495163341E+00
          0                 2           1             6    2     1       0.7609412138E-04       5   13    1        -0.3486164412E-02      0.1083836830E-01

    ------------------------------------------------
       NWT REQUIRED            2 OUTER ITERATIONS 
       AND A TOTAL OF          3 INNER ITERATIONS.
    ------------------------------------------------

 NO OUTPUT CONTROL FOR STRESS PERIOD    2   TIME STEP   26
 
 SOLVING FOR HEAD 
                                                   Max.-Head-Change                         Max.-Flux-Residual
  Residual-Control   Outer-Iter.   Inner-Iter.     Column Row Layer    Maximum-Head-Change  Column Row Layer    Maximum-Flux-Residual          L2-NORM 
          0                 1           2             5   13     1       0.1341240490E-02       5   13    1         0.7199991573E-01      0.1461901008E+00
          0                 2           1             6    2     1       0.7607054289E-04       5   13    1        -0.3369816479E-02      0.1072873215E-01

    ------------------------------------------------
       NWT REQUIRED            2 OUTER ITERATIONS 
       AND A TOTAL OF          3 INNER ITERATIONS.
    ------------------------------------------------

 NO OUTPUT CONTROL FOR STRESS PERIOD    2   TIME STEP   27
 
 SOLVING FOR HEAD 
                                                   Max.-Head-Change                         Max.-Flux-Residual
  Residual-Control   Outer-Iter.   Inner-Iter.     Column Row Layer    Maximum-Head-Change  Column Row Layer    Maximum-Flux-Residual          L2-NORM 
          0                 1           2             5   13     1       0.1297045798E-02       5   13    1         0.6961768019E-01      0.1430928267E+00
          0                 2           1             6    2     1       0.7605725112E-04       5   13    1        -0.3257836711E-02      0.1062852895E-01

    ------------------------------------------------
       NWT REQUIRED            2 OUTER ITERATIONS 
       AND A TOTAL OF          3 INNER ITERATIONS.
    ------------------------------------------------

 NO OUTPUT CONTROL FOR STRESS PERIOD    2   TIME STEP   28
 
 SOLVING FOR HEAD 
                                                   Max.-Head-Change                         Max.-Flux-Residual
  Residual-Control   Outer-Iter.   Inner-Iter.     Column Row Layer    Maximum-Head-Change  Column Row Layer    Maximum-Flux-Residual          L2-NORM 
          0                 1           2             5   13     1       0.1254462057E-02       5   13    1         0.6732216116E-01      0.1402004350E+00
          0                 2           1             6    2     1       0.7604348723E-04       5   13    1        -0.3149707186E-02      0.1053480331E-01

    ------------------------------------------------
       NWT REQUIRED            2 OUTER ITERATIONS 
       AND A TOTAL OF          3 INNER ITERATIONS.
    ------------------------------------------------

 NO OUTPUT CONTROL FOR STRESS PERIOD    2   TIME STEP   29
 
 SOLVING FOR HEAD 
                                                   Max.-Head-Change                         Max.-Flux-Residual
  Residual-Control   Outer-Iter.   Inner-Iter.     Column Row Layer    Maximum-Head-Change  Column Row Layer    Maximum-Flux-Residual          L2-NORM 
          0                 1           2             4   13     1       0.6443296819E-02       4   13    1         0.3685994439E+00      0.7628864375E+00
          0                 2           2             7   13     1      -0.5729995748E-03       7   13    1        -0.3118405361E-01      0.5030537771E-01
          0                 3           1             7   13     1       0.2130395975E-04       7   13    1         0.1170675981E-02      0.2186091103E-02

    ------------------------------------------------
       NWT REQUIRED            3 OUTER ITERATIONS 
       AND A TOTAL OF          5 INNER ITERATIONS.
    ------------------------------------------------

 NO OUTPUT CONTROL FOR STRESS PERIOD    2   TIME STEP   30



 STREAM LISTING     PERIOD      2   STEP       30

 LAYER ROW COL. STREAM  RCH.  FLOW INTO     FLOW TO   FLOW OUT OF   OVRLND.     DIRECT     STREAM       STREAM     STREAM     STREAM   STREAMBED  STREAMBED
                SEG.NO.  NO.  STRM. RCH.    AQUIFER    STRM. RCH.    RUNOFF     PRECIP       ET          HEAD       DEPTH      WIDTH   CONDCTNC.   GRADIENT

   1    1    1     1     1    2.1379E+01  2.2781E-01   2.1151E+01  0.000E+00  0.000E+00  0.000E+00  1.09417E+03  1.121E+00  1.228E+01  5.527E-02  1.374E+00
   1    2    2     1     2    2.1151E+01  3.5211E-01   2.0799E+01  0.000E+00  0.000E+00  0.000E+00  1.08918E+03  1.117E+00  1.222E+01  8.553E-02  1.372E+00
   1    3    3     1     3    2.0799E+01  2.9962E-01   2.0499E+01  0.000E+00  0.000E+00  0.000E+00  1.08353E+03  1.111E+00  1.215E+01  7.288E-02  1.370E+00
   1    3    4     1     4    2.0499E+01  2.7535E-01   2.0224E+01  0.000E+00  0.000E+00  0.000E+00  1.07851E+03  1.106E+00  1.208E+01  6.706E-02  1.369E+00
   1    4    5     2     1    1.8224E+01  3.1152E-01   1.7913E+01  0.000E+00  0.000E+00  0.000E+00  1.07293E+03  9.938E-01  1.200E+01  7.800E-02  1.331E+00
   1    5    6     2     2    1.7913E+01  2.3908E-01   1.7674E+01  0.000E+00  0.000E+00  0.000E+00  1.06749E+03  9.847E-01  1.200E+01  6.000E-02  1.328E+00
   1    6    6     2     3    1.7674E+01  2.3860E-01   1.7435E+01  0.000E+00  0.000E+00  0.000E+00  1.06277E+03  9.767E-01  1.200E+01  6.000E-02  1.326E+00
   1    7    6     2     4    1.7435E+01  2.3812E-01   1.7197E+01  0.000E+00  0.000E+00  0.000E+00  1.05804E+03  9.687E-01  1.200E+01  6.000E-02  1.323E+00
   1    8    6     2     5    1.7197E+01  2.3764E-01   1.6959E+01  0.000E+00  0.000E+00  0.000E+00  1.05332E+03  9.607E-01  1.200E+01  6.000E-02  1.320E+00
   1    3    5     3     1    2.0000E+00  2.8252E-01   1.7175E+00  0.000E+00  0.000E+00  0.000E+00  1.07555E+03  1.909E+00  9.636E+00  7.227E-02  1.955E+00
   1    3    6     3     2    1.7175E+00  2.4905E-01   1.4684E+00  0.000E+00  0.000E+00  0.000E+00  1.07264E+03  1.727E+00  8.909E+00  6.682E-02  1.864E+00
   1    3    7     3     3    1.4684E+00  1.9718E-01   1.2712E+00  0.000E+00  0.000E+00  0.000E+00  1.06987E+03  1.555E+00  8.218E+00  5.547E-02  1.777E+00
   1    4    8     3     4    1.2712E+00  2.2567E-01   1.0456E+00  0.000E+00  0.000E+00  0.000E+00  1.06682E+03  1.364E+00  7.455E+00  6.709E-02  1.682E+00
   1    5    8     3     5    1.0456E+00  1.5790E-01   8.8768E-01  0.000E+00  0.000E+00  0.000E+00  1.06362E+03  1.164E+00  6.655E+00  4.991E-02  1.582E+00
   1    6    8     3     6    8.8768E-01  5.5980E-02   8.3170E-01  0.000E+00  0.000E+00  0.000E+00  1.06158E+03  1.036E+00  6.145E+00  1.844E-02  1.518E+00
   1    5   10     4     1    1.0000E+01  9.0919E-02   9.9091E+00  0.000E+00  0.000E+00  0.000E+00  1.07836E+03  6.368E-01  1.000E+01  2.500E-02  1.212E+00
   1    5    9     4     2    9.9091E+00  1.8158E-01   9.7275E+00  0.000E+00  0.000E+00  0.000E+00  1.07154E+03  6.315E-01  1.000E+01  5.000E-02  1.211E+00
   1    6    8     4     3    9.7275E+00  1.2689E-01   9.6006E+00  0.000E+00  0.000E+00  0.000E+00  1.06381E+03  6.256E-01  1.000E+01  3.500E-02  1.209E+00
   1    6    8     5     1    1.0432E+01  2.2686E-01   1.0205E+01  0.000E+00  0.000E+00  0.000E+00  1.05868E+03  6.790E-01  1.542E+01  6.166E-02  1.226E+00
   1    7    7     5     2    1.0205E+01  2.7894E-01   9.9265E+00  0.000E+00  0.000E+00  0.000E+00  1.05417E+03  6.732E-01  1.519E+01  7.594E-02  1.224E+00
   1    8    7     5     3    9.9265E+00  1.9221E-01   9.7343E+00  0.000E+00  0.000E+00  0.000E+00  1.04992E+03  6.676E-01  1.497E+01  5.241E-02  1.223E+00
   1    8    6     5     4    9.7343E+00  1.3577E-01   9.5985E+00  0.000E+00  0.000E+00  0.000E+00  1.04691E+03  6.637E-01  1.482E+01  3.706E-02  1.221E+00
   1    9    6     6     1    2.6558E+01  2.5575E-01   2.6302E+01  0.000E+00  0.000E+00  0.000E+00  1.04399E+03  1.262E+00  1.200E+01  6.000E-02  1.421E+00
   1   10    7     6     2    2.6302E+01  2.5531E-01   2.6047E+01  0.000E+00  0.000E+00  0.000E+00  1.03944E+03  1.255E+00  1.200E+01  6.000E-02  1.418E+00
   1   11    7     6     3    2.6047E+01  2.5487E-01   2.5792E+01  0.000E+00  0.000E+00  0.000E+00  1.03488E+03  1.248E+00  1.200E+01  6.000E-02  1.416E+00
   1   12    7     6     4    2.5792E+01  2.5443E-01   2.5537E+01  0.000E+00  0.000E+00  0.000E+00  1.03033E+03  1.240E+00  1.200E+01  6.000E-02  1.413E+00
   1   13    7     6     5    2.5537E+01  2.7728E-03   2.5535E+01  0.000E+00  0.000E+00  0.000E+00  1.02715E+03  1.237E+00  1.200E+01  2.400E-02  3.851E-02
   1   14    9     7     1    1.5000E+02  1.3363E+00   1.4866E+02  0.000E+00  0.000E+00  0.000E+00  1.03987E+03  2.288E+00  5.529E+01  5.593E-01  7.964E-01
   1   13    8     7     2    1.4866E+02  1.8418E+00   1.4682E+02  0.000E+00  0.000E+00  0.000E+00  1.03478E+03  2.279E+00  5.526E+01  6.148E-01  9.987E-01
   1   13    7     7     3    1.4682E+02  1.4852E+00   1.4534E+02  0.000E+00  0.000E+00  0.000E+00  1.02969E+03  2.270E+00  5.522E+01  5.584E-01  8.865E-01
   1   13    6     8     1    1.7087E+02  9.2839E-01   1.6994E+02  0.000E+00  0.000E+00  0.000E+00  1.02483E+03  2.955E+00  4.285E+01  4.366E-01  7.088E-01
   1   13    5     8     2    1.6994E+02  1.7514E-01   1.6977E+02  0.000E+00  0.000E+00  0.000E+00  1.01858E+03  2.951E+00  4.279E+01  4.361E-01  1.339E-01
   1   13    4     8     3    1.6977E+02 -2.2852E+00   1.7205E+02  0.000E+00  0.000E+00  0.000E+00  1.01233E+03  2.958E+00  4.289E+01  4.371E+00 -1.743E-01
   1   13    3     8     4    1.7205E+02 -3.4329E+00   1.7549E+02  0.000E+00  0.000E+00  0.000E+00  1.00610E+03  2.977E+00  4.316E+01  4.398E+00 -2.602E-01
   1   13    2     8     5    1.7549E+02 -2.2677E+00   1.7775E+02  0.000E+00  0.000E+00  0.000E+00  9.99870E+02  2.995E+00  4.342E+01  4.425E+00 -1.708E-01
   1   13    1     8     6    1.7775E+02 -1.7639E+00   1.7952E+02  0.000E+00  0.000E+00  0.000E+00  9.94883E+02  3.008E+00  4.361E+01  2.666E+00 -2.205E-01
   1    6    8     9     1    0.0000E+00  0.0000E+00   0.0000E+00  0.000E+00  0.000E+00  0.000E+00  1.07850E+03  0.000E+00  4.000E+00  0.000E+00  1.000E+00





UNSATURATED ZONE PACKAGE VOLUMETRIC BUDGET FOR  TIME STEP    30 STRESS PERIOD    2
  ------------------------------------------------------------------------------



     CUMULATIVE VOLUMES      L**3       RATES FOR THIS TIME STEP      L**3/T
     ------------------                 ------------------------

           IN:                                      IN:
           ---                                      ---
        INFILTRATION =       73224.0000          INFILTRATION =       0.0000E+00

          OUT:                                     OUT:
          ----                                     ----
              UZF ET =       0.0000E+00                UZF ET =       0.0000E+00
        UZF RECHARGE =      152091.9582          UZF RECHARGE =           0.1047

            IN - OUT =      -78867.9582              IN - OUT =          -0.1047

          STORAGE:                                 STORAGE:
          --------                                 --------
      STORAGE CHANGE =      -78836.4004        STORAGE CHANGE =          -0.1047

 PERCENT DISCREPANCY IS DIFFERENCE BETWEEN IN-OUT MINUS CHANGE IN STORAGE
 DIVIDED BY THE AVERAGE OF IN AND OUT TIMES 100

 PERCENT DISCREPANCY =          -0.01     PERCENT DISCREPANCY =          -0.01






1
  VOLUMETRIC BUDGET FOR ENTIRE MODEL AT END OF TIME STEP   30, STRESS PERIOD   2
  ------------------------------------------------------------------------------

     CUMULATIVE VOLUMES      L**3       RATES FOR THIS TIME STEP      L**3/T
     ------------------                 ------------------------

           IN:                                      IN:
           ---                                      ---
    AWU WELLS            =           0.0000      AWU WELLS            =           0.0000
    DIVERSION SEGMENTS   =           0.0000      DIVERSION SEGMENTS   =           0.0000
    GW IRRIGATION        =           0.0000      GW IRRIGATION        =           0.0000
    SW IRRIGATION        =           0.0000      SW IRRIGATION        =           0.0000
    EFFICIENCY FACTOR GW =           0.0000      EFFICIENCY FACTOR GW =           0.0000
    EFFICIENCY FACTOR SW =           0.0000      EFFICIENCY FACTOR SW =           0.0000

                TOTAL IN =           0.0000                  TOTAL IN =           0.0000

          OUT:                                     OUT:
          ----                                     ----
    AWU WELLS            =           0.0000      AWU WELLS            =           0.0000
    DIVERSION SEGMENTS   =           0.0000      DIVERSION SEGMENTS   =           0.0000
    GW IRRIGATION        =           0.0000      GW IRRIGATION        =           0.0000
    SW IRRIGATION        =           0.0000      SW IRRIGATION        =           0.0000
    EFFICIENCY FACTOR GW =           0.0000      EFFICIENCY FACTOR GW =           0.0000
    EFFICIENCY FACTOR SW =           0.0000      EFFICIENCY FACTOR SW =           0.0000

               TOTAL OUT =           0.0000                 TOTAL OUT =           0.0000

                IN - OUT =           0.0000                  IN - OUT =           0.0000

     PERCENT DISCREPANCY =           0.00         PERCENT DISCREPANCY =           0.00



1
  VOLUMETRIC BUDGET FOR ENTIRE MODEL AT END OF TIME STEP   30, STRESS PERIOD   2
  ------------------------------------------------------------------------------

     CUMULATIVE VOLUMES      L**3       RATES FOR THIS TIME STEP      L**3/T
     ------------------                 ------------------------

           IN:                                      IN:
           ---                                      ---
             STORAGE     =     2016987.7500               STORAGE     =           0.6913
       CONSTANT HEAD     =           0.0000         CONSTANT HEAD     =           0.0000
     HEAD DEP BOUNDS     =      775684.4375       HEAD DEP BOUNDS     =           0.2858
      STREAM LEAKAGE     =    28580588.0000        STREAM LEAKAGE     =          11.6113
        UZF RECHARGE     =      152091.9062          UZF RECHARGE     =           0.1047
               GW ET     =           0.0000                 GW ET     =           0.0000
     SURFACE LEAKAGE     =           0.0000       SURFACE LEAKAGE     =           0.0000
    AWU WELLS            =           0.0000      AWU WELLS            =           0.0000

                TOTAL IN =    31525352.0000                  TOTAL IN =          12.6930

          OUT:                                     OUT:
          ----                                     ----
             STORAGE     =     1601810.6250               STORAGE     =           2.6465
       CONSTANT HEAD     =           0.0000         CONSTANT HEAD     =           0.0000
     HEAD DEP BOUNDS     =      775676.6250       HEAD DEP BOUNDS     =           0.2867
      STREAM LEAKAGE     =    29044140.0000        STREAM LEAKAGE     =           9.7497
        UZF RECHARGE     =           0.0000          UZF RECHARGE     =           0.0000
               GW ET     =      111757.2578                 GW ET     =       1.0036E-02
     SURFACE LEAKAGE     =           0.0000       SURFACE LEAKAGE     =           0.0000
    AWU WELLS            =           0.0000      AWU WELLS            =           0.0000

               TOTAL OUT =    31533386.0000                 TOTAL OUT =          12.6929

                IN - OUT =       -8034.0000                  IN - OUT =       1.5640E-04

     PERCENT DISCREPANCY =          -0.03         PERCENT DISCREPANCY =           0.00






         TIME SUMMARY AT END OF TIME STEP   30 IN STRESS PERIOD    2
                    SECONDS     MINUTES      HOURS       DAYS        YEARS
                    -----------------------------------------------------------
   TIME STEP LENGTH  87600.      1460.0      24.333      1.0139     2.77588E-03
 STRESS PERIOD TIME 2.62800E+06  43800.      730.00      30.417     8.32763E-02
         TOTAL TIME 2.71440E+06  45240.      754.00      31.417     8.60141E-02
1
1
                            STRESS PERIOD NO.    3, LENGTH =   2628000.    
                            -----------------------------------------------

                              NUMBER OF TIME STEPS =    30

                               MULTIPLIER FOR DELT =     1.000

                            INITIAL TIME STEP SIZE =   87600.00    

 REUSING NON-PARAMETER GHB CELLS FROM LAST STRESS PERIOD

      2 GHB CELLS

 REUSING STREAM SEGMENT DATA FROM LAST STRESS PERIOD



            AREAL INFILTRATION RATE
 READING ON UNIT   19 WITH FORMAT: (10F4.0)            

            1           2           3           4           5           6           7           8           9          10
 ........................................................................................................................
   1    0.000       0.000       0.000       0.000       0.000       0.000       0.000       0.000       0.000       0.000    
   2    0.000       0.000       0.000       0.000       0.000       0.000       0.000       0.000       0.000       0.000    
   3    0.000       0.000       0.000       0.000       0.000       0.000       0.000       0.000       0.000       0.000    
   4    0.000       0.000       0.000       0.000       0.000       0.000       0.000       0.000       0.000       0.000    
   5    0.000       0.000       0.000       0.000       0.000       0.000       0.000       0.000       0.000       0.000    
   6    0.000       0.000       0.000       0.000       0.000       0.000       0.000       0.000       0.000       0.000    
   7    0.000       0.000       0.000       0.000       0.000       0.000       0.000       0.000       0.000       0.000    
   8    0.000       0.000       0.000       0.000       0.000       0.000       0.000       0.000       0.000       0.000    
   9    0.000       0.000       0.000       0.000       0.000       0.000       0.000       0.000       0.000       0.000    
  10    0.000       0.000       0.000       0.000       0.000       0.000       0.000       0.000       0.000       0.000    
  11    0.000       0.000       0.000       0.000       0.000       0.000       0.000       0.000       0.000       0.000    
  12    0.000       0.000       0.000       0.000       0.000       0.000       0.000       0.000       0.000       0.000    
  13    0.000       0.000       0.000       0.000       0.000       0.000       0.000       0.000       0.000       0.000    
  14    0.000       0.000       0.000       0.000       0.000       0.000       0.000       0.000       0.000       0.000    
  15    0.000       0.000       0.000       0.000       0.000       0.000       0.000       0.000       0.000       0.000    

                  ET RATE =  1.000000E-10

 USING ET EXTINCTION DEPTH FROM PREVIOUS STRESS PERIOD. CURRENT PERIOD IS:       3

 USING EXTINCTION WATER CONTENT FROM PREVIOUS STRESS PERIOD. CURRENT PERIOD IS:       3

 PROCESSING AWU STRESS PERIOD DATA

 READING AWU STRESS PERIOD DATA

 READING IRRIGATION STREAM

 READING IRRIGATION WELL

 READING SUPPLEMENTAL WEL

 END PROCESSING AWU STRESS PERIOD DATA OPTIONS
 
 SOLVING FOR HEAD 
                                                   Max.-Head-Change                         Max.-Flux-Residual
  Residual-Control   Outer-Iter.   Inner-Iter.     Column Row Layer    Maximum-Head-Change  Column Row Layer    Maximum-Flux-Residual          L2-NORM 
          0                 1           2             4   13     1       0.6082191397E-02       4   13    1         0.3477552908E+00      0.7389800405E+00
          0                 2           2             4   13     1      -0.2950106433E-03       4   13    1        -0.1703993248E-01      0.3568326128E-01
          0                 3           1             4   13     1       0.1153408686E-04       4   13    1         0.6732353431E-03      0.1529767586E-02

    ------------------------------------------------
       NWT REQUIRED            3 OUTER ITERATIONS 
       AND A TOTAL OF          5 INNER ITERATIONS.
    ------------------------------------------------

 NO OUTPUT CONTROL FOR STRESS PERIOD    3   TIME STEP    1
 
 SOLVING FOR HEAD 
                                                   Max.-Head-Change                         Max.-Flux-Residual
  Residual-Control   Outer-Iter.   Inner-Iter.     Column Row Layer    Maximum-Head-Change  Column Row Layer    Maximum-Flux-Residual          L2-NORM 
          0                 1           2             4   13     1       0.5512395719E-02       4   13    1         0.3149286288E+00      0.6967475426E+00
          0                 2           2             4   13     1      -0.2670652878E-03       4   13    1        -0.1541390532E-01      0.3312564252E-01
          0                 3           1             4   13     1       0.1043041412E-04       4   13    1         0.6082391037E-03      0.1430340327E-02

    ------------------------------------------------
       NWT REQUIRED            3 OUTER ITERATIONS 
       AND A TOTAL OF          5 INNER ITERATIONS.
    ------------------------------------------------

 NO OUTPUT CONTROL FOR STRESS PERIOD    3   TIME STEP    2
 
 SOLVING FOR HEAD 
                                                   Max.-Head-Change                         Max.-Flux-Residual
  Residual-Control   Outer-Iter.   Inner-Iter.     Column Row Layer    Maximum-Head-Change  Column Row Layer    Maximum-Flux-Residual          L2-NORM 
          0                 1           2             2   13     1       0.5068097035E-02       4   13    1         0.2854409817E+00      0.6587555964E+00
          0                 2           2             4   13     1      -0.2419845535E-03       4   13    1        -0.1395513241E-01      0.3137764994E-01
          0                 3           1             4   13     1       0.9452504773E-05       4   13    1         0.5508920030E-03      0.1368643462E-02

    ------------------------------------------------
       NWT REQUIRED            3 OUTER ITERATIONS 
       AND A TOTAL OF          5 INNER ITERATIONS.
    ------------------------------------------------

 NO OUTPUT CONTROL FOR STRESS PERIOD    3   TIME STEP    3
 
 SOLVING FOR HEAD 
                                                   Max.-Head-Change                         Max.-Flux-Residual
  Residual-Control   Outer-Iter.   Inner-Iter.     Column Row Layer    Maximum-Head-Change  Column Row Layer    Maximum-Flux-Residual          L2-NORM 
          0                 1           2             2   13     1       0.4682433066E-02       2   13    1         0.2632886239E+00      0.6246065550E+00
          0                 2           2             4   13     1      -0.2194093123E-03       4   13    1        -0.1264262666E-01      0.2981928493E-01
          0                 3           1             4   13     1       0.8548990891E-05       4   13    1         0.4978235829E-03      0.1317534449E-02

    ------------------------------------------------
       NWT REQUIRED            3 OUTER ITERATIONS 
       AND A TOTAL OF          5 INNER ITERATIONS.
    ------------------------------------------------

 NO OUTPUT CONTROL FOR STRESS PERIOD    3   TIME STEP    4
 
 SOLVING FOR HEAD 
                                                   Max.-Head-Change                         Max.-Flux-Residual
  Residual-Control   Outer-Iter.   Inner-Iter.     Column Row Layer    Maximum-Head-Change  Column Row Layer    Maximum-Flux-Residual          L2-NORM 
          0                 1           2             2   13     1       0.4326587184E-02       2   13    1         0.2432458713E+00      0.5939123225E+00
          0                 2           2             4   13     1      -0.1991364985E-03       4   13    1        -0.1146446415E-01      0.2842879570E-01
          0                 3           1             4   13     1       0.7754931022E-05       4   13    1         0.4510966064E-03      0.1276767523E-02

    ------------------------------------------------
       NWT REQUIRED            3 OUTER ITERATIONS 
       AND A TOTAL OF          5 INNER ITERATIONS.
    ------------------------------------------------

 NO OUTPUT CONTROL FOR STRESS PERIOD    3   TIME STEP    5
 
 SOLVING FOR HEAD 
                                                   Max.-Head-Change                         Max.-Flux-Residual
  Residual-Control   Outer-Iter.   Inner-Iter.     Column Row Layer    Maximum-Head-Change  Column Row Layer    Maximum-Flux-Residual          L2-NORM 
          0                 1           2             2   13     1       0.3998311702E-02       2   13    1         0.2247573672E+00      0.5663113973E+00
          0                 2           2             4   13     1      -0.1808892925E-03       4   13    1        -0.1040447540E-01      0.2718599784E-01
          0                 3           1             4   13     1       0.7028418685E-05       4   13    1         0.4085646569E-03      0.1235242174E-02

    ------------------------------------------------
       NWT REQUIRED            3 OUTER ITERATIONS 
       AND A TOTAL OF          5 INNER ITERATIONS.
    ------------------------------------------------

 NO OUTPUT CONTROL FOR STRESS PERIOD    3   TIME STEP    6
 
 SOLVING FOR HEAD 
                                                   Max.-Head-Change                         Max.-Flux-Residual
  Residual-Control   Outer-Iter.   Inner-Iter.     Column Row Layer    Maximum-Head-Change  Column Row Layer    Maximum-Flux-Residual          L2-NORM 
          0                 1           2             2   13     1       0.3695467622E-02       2   13    1         0.2077023883E+00      0.5414955414E+00
          0                 2           2             4   13     1      -0.1644789828E-03       4   13    1        -0.9451618400E-02      0.2607793203E-01
          0                 3           1             6    2     1      -0.6766865580E-05       4   13    1         0.3706434472E-03      0.1202265970E-02

    ------------------------------------------------
       NWT REQUIRED            3 OUTER ITERATIONS 
       AND A TOTAL OF          5 INNER ITERATIONS.
    ------------------------------------------------

 NO OUTPUT CONTROL FOR STRESS PERIOD    3   TIME STEP    7
 
 SOLVING FOR HEAD 
                                                   Max.-Head-Change                         Max.-Flux-Residual
  Residual-Control   Outer-Iter.   Inner-Iter.     Column Row Layer    Maximum-Head-Change  Column Row Layer    Maximum-Flux-Residual          L2-NORM 
          0                 1           2             2    2     1       0.3607548179E-02       2   13    1         0.1919674006E+00      0.5191597613E+00
          0                 2           2             2    2     1      -0.1624726266E-03       2   13    1        -0.8617330346E-02      0.2506079201E-01
          0                 3           1             6    2     1      -0.6765120689E-05       4   13    1         0.3360319306E-03      0.1167326879E-02

    ------------------------------------------------
       NWT REQUIRED            3 OUTER ITERATIONS 
       AND A TOTAL OF          5 INNER ITERATIONS.
    ------------------------------------------------

 NO OUTPUT CONTROL FOR STRESS PERIOD    3   TIME STEP    8
 
 SOLVING FOR HEAD 
                                                   Max.-Head-Change                         Max.-Flux-Residual
  Residual-Control   Outer-Iter.   Inner-Iter.     Column Row Layer    Maximum-Head-Change  Column Row Layer    Maximum-Flux-Residual          L2-NORM 
          0                 1           2             2    2     1       0.3579542209E-02       2    2    1         0.1872399519E+00      0.4990549415E+00
          0                 2           2             2    2     1      -0.1612113979E-03       2    2    1        -0.8508445176E-02      0.2416683369E-01
          0                 3           1             6    2     1      -0.6763317349E-05       2    2    1         0.3056819892E-03      0.1140964511E-02

    ------------------------------------------------
       NWT REQUIRED            3 OUTER ITERATIONS 
       AND A TOTAL OF          5 INNER ITERATIONS.
    ------------------------------------------------

 NO OUTPUT CONTROL FOR STRESS PERIOD    3   TIME STEP    9
 
 SOLVING FOR HEAD 
                                                   Max.-Head-Change                         Max.-Flux-Residual
  Residual-Control   Outer-Iter.   Inner-Iter.     Column Row Layer    Maximum-Head-Change  Column Row Layer    Maximum-Flux-Residual          L2-NORM 
          0                 1           2             2    2     1       0.3551954255E-02       2    2    1         0.1857873745E+00      0.4809266678E+00
          0                 2           2             2    2     1      -0.1599689942E-03       2    2    1        -0.8441919399E-02      0.2337202635E-01
          0                 3           1             6    2     1      -0.6760500474E-05       2    2    1         0.3032403563E-03      0.1120141179E-02

    ------------------------------------------------
       NWT REQUIRED            3 OUTER ITERATIONS 
       AND A TOTAL OF          5 INNER ITERATIONS.
    ------------------------------------------------

 NO OUTPUT CONTROL FOR STRESS PERIOD    3   TIME STEP   10
 
 SOLVING FOR HEAD 
                                                   Max.-Head-Change                         Max.-Flux-Residual
  Residual-Control   Outer-Iter.   Inner-Iter.     Column Row Layer    Maximum-Head-Change  Column Row Layer    Maximum-Flux-Residual          L2-NORM 
          0                 1           2             2    2     1       0.3524777296E-02       2    2    1         0.1843564783E+00      0.4645728349E+00
          0                 2           2             2    2     1      -0.1587450982E-03       2    2    1        -0.8376388823E-02      0.2265579258E-01
          0                 3           1             6    2     1      -0.6758586619E-05       2    2    1         0.3008354553E-03      0.1097751529E-02

    ------------------------------------------------
       NWT REQUIRED            3 OUTER ITERATIONS 
       AND A TOTAL OF          5 INNER ITERATIONS.
    ------------------------------------------------

 NO OUTPUT CONTROL FOR STRESS PERIOD    3   TIME STEP   11
 
 SOLVING FOR HEAD 
                                                   Max.-Head-Change                         Max.-Flux-Residual
  Residual-Control   Outer-Iter.   Inner-Iter.     Column Row Layer    Maximum-Head-Change  Column Row Layer    Maximum-Flux-Residual          L2-NORM 
          0                 1           2             2    2     1       0.3498004434E-02       2    2    1         0.1829468991E+00      0.4497968221E+00
          0                 2           2             2    2     1      -0.1575393997E-03       2    2    1        -0.8311836736E-02      0.2201645627E-01
          0                 3           1             6    2     1      -0.6756614316E-05       2    2    1         0.2984666968E-03      0.1082175857E-02

    ------------------------------------------------
       NWT REQUIRED            3 OUTER ITERATIONS 
       AND A TOTAL OF          5 INNER ITERATIONS.
    ------------------------------------------------

 NO OUTPUT CONTROL FOR STRESS PERIOD    3   TIME STEP   12
 
 SOLVING FOR HEAD 
                                                   Max.-Head-Change                         Max.-Flux-Residual
  Residual-Control   Outer-Iter.   Inner-Iter.     Column Row Layer    Maximum-Head-Change  Column Row Layer    Maximum-Flux-Residual          L2-NORM 
          0                 1           2             2    2     1       0.3471542238E-02       2    2    1         0.1815537267E+00      0.4364249313E+00
          0                 2           2             2    2     1      -0.1563060924E-03       2    2    1        -0.8248038734E-02      0.2142134190E-01
          0                 3           1             6    2     1      -0.6753626267E-05       2    2    1         0.2962445808E-03      0.1057677815E-02

    ------------------------------------------------
       NWT REQUIRED            3 OUTER ITERATIONS 
       AND A TOTAL OF          5 INNER ITERATIONS.
    ------------------------------------------------

 NO OUTPUT CONTROL FOR STRESS PERIOD    3   TIME STEP   13
 
 SOLVING FOR HEAD 
                                                   Max.-Head-Change                         Max.-Flux-Residual
  Residual-Control   Outer-Iter.   Inner-Iter.     Column Row Layer    Maximum-Head-Change  Column Row Layer    Maximum-Flux-Residual          L2-NORM 
          0                 1           2             2    2     1       0.3445597488E-02       2    2    1         0.1801876178E+00      0.4242966053E+00
          0                 2           2             2    2     1      -0.1550898013E-03       2    2    1        -0.8185470369E-02      0.2085973993E-01
          0                 3           1             6    2     1      -0.6751538292E-05       2    2    1         0.2940845666E-03      0.1040608511E-02

    ------------------------------------------------
       NWT REQUIRED            3 OUTER ITERATIONS 
       AND A TOTAL OF          5 INNER ITERATIONS.
    ------------------------------------------------

 NO OUTPUT CONTROL FOR STRESS PERIOD    3   TIME STEP   14
 
 SOLVING FOR HEAD 
                                                   Max.-Head-Change                         Max.-Flux-Residual
  Residual-Control   Outer-Iter.   Inner-Iter.     Column Row Layer    Maximum-Head-Change  Column Row Layer    Maximum-Flux-Residual          L2-NORM 
          0                 1           2             2    2     1       0.3419998629E-02       2    2    1         0.1788399937E+00      0.4132319793E+00
          0                 2           1             2    2     1      -0.1539306731E-03       2    2    1        -0.8123763396E-02      0.2037200487E-01
          0                 3           1             6    2     1      -0.6749390886E-05       2    2    1         0.2918389462E-03      0.1026471101E-02

    ------------------------------------------------
       NWT REQUIRED            3 OUTER ITERATIONS 
       AND A TOTAL OF          4 INNER ITERATIONS.
    ------------------------------------------------

 NO OUTPUT CONTROL FOR STRESS PERIOD    3   TIME STEP   15
 
 SOLVING FOR HEAD 
                                                   Max.-Head-Change                         Max.-Flux-Residual
  Residual-Control   Outer-Iter.   Inner-Iter.     Column Row Layer    Maximum-Head-Change  Column Row Layer    Maximum-Flux-Residual          L2-NORM 
          0                 1           2             2    2     1       0.3394696207E-02       2    2    1         0.1775080236E+00      0.4031565993E+00
          0                 2           1             2    2     1      -0.1527850028E-03       2    2    1        -0.8062775824E-02      0.1993766585E-01
          0                 3           1             6    2     1      -0.6746230927E-05       2    2    1         0.2896196793E-03      0.1015068551E-02

    ------------------------------------------------
       NWT REQUIRED            3 OUTER ITERATIONS 
       AND A TOTAL OF          4 INNER ITERATIONS.
    ------------------------------------------------

 NO OUTPUT CONTROL FOR STRESS PERIOD    3   TIME STEP   16
 
 SOLVING FOR HEAD 
                                                   Max.-Head-Change                         Max.-Flux-Residual
  Residual-Control   Outer-Iter.   Inner-Iter.     Column Row Layer    Maximum-Head-Change  Column Row Layer    Maximum-Flux-Residual          L2-NORM 
          0                 1           2             2    2     1       0.3369858902E-02       2    2    1         0.1762005287E+00      0.3939635820E+00
          0                 2           1             2    2     1      -0.1516603823E-03       2    2    1        -0.8002908405E-02      0.1952928703E-01
          0                 3           1             6    2     1      -0.6743971041E-05       2    2    1         0.2874411417E-03      0.1001433105E-02

    ------------------------------------------------
       NWT REQUIRED            3 OUTER ITERATIONS 
       AND A TOTAL OF          4 INNER ITERATIONS.
    ------------------------------------------------

 NO OUTPUT CONTROL FOR STRESS PERIOD    3   TIME STEP   17
 
 SOLVING FOR HEAD 
                                                   Max.-Head-Change                         Max.-Flux-Residual
  Residual-Control   Outer-Iter.   Inner-Iter.     Column Row Layer    Maximum-Head-Change  Column Row Layer    Maximum-Flux-Residual          L2-NORM 
          0                 1           2             2    2     1       0.3345305493E-02       2    2    1         0.1749080473E+00      0.3855590036E+00
          0                 2           1             2    2     1      -0.1505486941E-03       2    2    1        -0.7943732157E-02      0.1916516304E-01
          0                 3           1             6    2     1      -0.6741651233E-05       2    2    1         0.2852879056E-03      0.9911020693E-03

    ------------------------------------------------
       NWT REQUIRED            3 OUTER ITERATIONS 
       AND A TOTAL OF          4 INNER ITERATIONS.
    ------------------------------------------------

 NO OUTPUT CONTROL FOR STRESS PERIOD    3   TIME STEP   18
 
 SOLVING FOR HEAD 
                                                   Max.-Head-Change                         Max.-Flux-Residual
  Residual-Control   Outer-Iter.   Inner-Iter.     Column Row Layer    Maximum-Head-Change  Column Row Layer    Maximum-Flux-Residual          L2-NORM 
          0                 1           2             2    2     1       0.3321204448E-02       2    2    1         0.1736393891E+00      0.3778541023E+00
          0                 2           1             2    2     1      -0.1494574786E-03       2    2    1        -0.7885647234E-02      0.1883134675E-01
          0                 3           1             6    2     1      -0.6739269046E-05       2    2    1         0.2831744509E-03      0.9816032583E-03

    ------------------------------------------------
       NWT REQUIRED            3 OUTER ITERATIONS 
       AND A TOTAL OF          4 INNER ITERATIONS.
    ------------------------------------------------

 NO OUTPUT CONTROL FOR STRESS PERIOD    3   TIME STEP   19
 
 SOLVING FOR HEAD 
                                                   Max.-Head-Change                         Max.-Flux-Residual
  Residual-Control   Outer-Iter.   Inner-Iter.     Column Row Layer    Maximum-Head-Change  Column Row Layer    Maximum-Flux-Residual          L2-NORM 
          0                 1           2             2    2     1       0.3297375168E-02       2    2    1         0.1723850826E+00      0.3707809637E+00
          0                 2           1             2    2     1      -0.1483786225E-03       2    2    1        -0.7828221919E-02      0.1852688947E-01
          0                 3           1             6    2     1      -0.6735871359E-05       2    2    1         0.2810851096E-03      0.9726503169E-03

    ------------------------------------------------
       NWT REQUIRED            3 OUTER ITERATIONS 
       AND A TOTAL OF          4 INNER ITERATIONS.
    ------------------------------------------------

 NO OUTPUT CONTROL FOR STRESS PERIOD    3   TIME STEP   20
 
 SOLVING FOR HEAD 
                                                   Max.-Head-Change                         Max.-Flux-Residual
  Residual-Control   Outer-Iter.   Inner-Iter.     Column Row Layer    Maximum-Head-Change  Column Row Layer    Maximum-Flux-Residual          L2-NORM 
          0                 1           2             2    2     1       0.3273811952E-02       2    2    1         0.1711448654E+00      0.3642544526E+00
          0                 2           1             2    2     1      -0.1473118665E-03       2    2    1        -0.7771446237E-02      0.1824739399E-01
          0                 3           1             6    2     1      -0.6733373992E-05       2    2    1         0.2790197125E-03      0.9655127234E-03

    ------------------------------------------------
       NWT REQUIRED            3 OUTER ITERATIONS 
       AND A TOTAL OF          4 INNER ITERATIONS.
    ------------------------------------------------

 NO OUTPUT CONTROL FOR STRESS PERIOD    3   TIME STEP   21
 
 SOLVING FOR HEAD 
                                                   Max.-Head-Change                         Max.-Flux-Residual
  Residual-Control   Outer-Iter.   Inner-Iter.     Column Row Layer    Maximum-Head-Change  Column Row Layer    Maximum-Flux-Residual          L2-NORM 
          0                 1           2             2    2     1       0.3250683960E-02       2    2    1         0.1699275486E+00      0.3582281342E+00
          0                 2           1             2    2     1      -0.1462648263E-03       2    2    1        -0.7715718520E-02      0.1797550591E-01
          0                 3           1             6    2     1      -0.6730824560E-05       2    2    1         0.2769923483E-03      0.9546327860E-03

    ------------------------------------------------
       NWT REQUIRED            3 OUTER ITERATIONS 
       AND A TOTAL OF          4 INNER ITERATIONS.
    ------------------------------------------------

 NO OUTPUT CONTROL FOR STRESS PERIOD    3   TIME STEP   22
 
 SOLVING FOR HEAD 
                                                   Max.-Head-Change                         Max.-Flux-Residual
  Residual-Control   Outer-Iter.   Inner-Iter.     Column Row Layer    Maximum-Head-Change  Column Row Layer    Maximum-Flux-Residual          L2-NORM 
          0                 1           2             2    2     1       0.3227897563E-02       2    2    1         0.1687282466E+00      0.3526490452E+00
          0                 2           1             2    2     1      -0.1452332833E-03       2    2    1        -0.7660817435E-02      0.1772942868E-01
          0                 3           1             6    2     1      -0.6727254227E-05       2    2    1         0.2749951439E-03      0.9476696082E-03

    ------------------------------------------------
       NWT REQUIRED            3 OUTER ITERATIONS 
       AND A TOTAL OF          4 INNER ITERATIONS.
    ------------------------------------------------

 NO OUTPUT CONTROL FOR STRESS PERIOD    3   TIME STEP   23
 
 SOLVING FOR HEAD 
                                                   Max.-Head-Change                         Max.-Flux-Residual
  Residual-Control   Outer-Iter.   Inner-Iter.     Column Row Layer    Maximum-Head-Change  Column Row Layer    Maximum-Flux-Residual          L2-NORM 
          0                 1           2             2    2     1       0.3205360661E-02       2    2    1         0.1675421029E+00      0.3474662772E+00
          0                 2           1             2    2     1      -0.1442130657E-03       2    2    1        -0.7606520144E-02      0.1750787202E-01
          0                 3           1             6    2     1      -0.6724583967E-05       2    2    1         0.2730199653E-03      0.9407966376E-03

    ------------------------------------------------
       NWT REQUIRED            3 OUTER ITERATIONS 
       AND A TOTAL OF          4 INNER ITERATIONS.
    ------------------------------------------------

 NO OUTPUT CONTROL FOR STRESS PERIOD    3   TIME STEP   24
 
 SOLVING FOR HEAD 
                                                   Max.-Head-Change                         Max.-Flux-Residual
  Residual-Control   Outer-Iter.   Inner-Iter.     Column Row Layer    Maximum-Head-Change  Column Row Layer    Maximum-Flux-Residual          L2-NORM 
          0                 1           2             2    2     1       0.3183155050E-02       2    2    1         0.1663734486E+00      0.3426340341E+00
          0                 2           1             2    2     1      -0.1432078780E-03       2    2    1        -0.7553026399E-02      0.1730412094E-01
          0                 3           1             6    2     1      -0.6721852065E-05       2    2    1         0.2710742122E-03      0.9351290518E-03

    ------------------------------------------------
       NWT REQUIRED            3 OUTER ITERATIONS 
       AND A TOTAL OF          4 INNER ITERATIONS.
    ------------------------------------------------

 NO OUTPUT CONTROL FOR STRESS PERIOD    3   TIME STEP   25
 
 SOLVING FOR HEAD 
                                                   Max.-Head-Change                         Max.-Flux-Residual
  Residual-Control   Outer-Iter.   Inner-Iter.     Column Row Layer    Maximum-Head-Change  Column Row Layer    Maximum-Flux-Residual          L2-NORM 
          0                 1           2             2    2     1       0.3161274728E-02       2    2    1         0.1652219718E+00      0.3381270007E+00
          0                 2           1             2    2     1      -0.1422174673E-03       2    2    1        -0.7500322023E-02      0.1711381571E-01
          0                 3           1             6    2     1      -0.6718106382E-05       2    2    1         0.2691573280E-03      0.9311466702E-03

    ------------------------------------------------
       NWT REQUIRED            3 OUTER ITERATIONS 
       AND A TOTAL OF          4 INNER ITERATIONS.
    ------------------------------------------------

 NO OUTPUT CONTROL FOR STRESS PERIOD    3   TIME STEP   26
 
 SOLVING FOR HEAD 
                                                   Max.-Head-Change                         Max.-Flux-Residual
  Residual-Control   Outer-Iter.   Inner-Iter.     Column Row Layer    Maximum-Head-Change  Column Row Layer    Maximum-Flux-Residual          L2-NORM 
          0                 1           2             2    2     1       0.3139715330E-02       2    2    1         0.1640873604E+00      0.3339042734E+00
          0                 2           1             2    2     1      -0.1412415729E-03       2    2    1        -0.7448388347E-02      0.1693541345E-01
          0                 3           1             6    2     1      -0.6715259546E-05       2    2    1         0.2672683741E-03      0.9262597895E-03

    ------------------------------------------------
       NWT REQUIRED            3 OUTER ITERATIONS 
       AND A TOTAL OF          4 INNER ITERATIONS.
    ------------------------------------------------

 NO OUTPUT CONTROL FOR STRESS PERIOD    3   TIME STEP   27
 
 SOLVING FOR HEAD 
                                                   Max.-Head-Change                         Max.-Flux-Residual
  Residual-Control   Outer-Iter.   Inner-Iter.     Column Row Layer    Maximum-Head-Change  Column Row Layer    Maximum-Flux-Residual          L2-NORM 
          0                 1           2             2    2     1       0.3118384081E-02       2    2    1         0.1629648372E+00      0.3299492156E+00
          0                 2           1             2    2     1      -0.1402760776E-03       2    2    1        -0.7397012393E-02      0.1676996524E-01
          0                 3           1             6    2     1      -0.6712355979E-05       2    2    1         0.2653999589E-03      0.9222448085E-03

    ------------------------------------------------
       NWT REQUIRED            3 OUTER ITERATIONS 
       AND A TOTAL OF          4 INNER ITERATIONS.
    ------------------------------------------------

 NO OUTPUT CONTROL FOR STRESS PERIOD    3   TIME STEP   28
 
 SOLVING FOR HEAD 
                                                   Max.-Head-Change                         Max.-Flux-Residual
  Residual-Control   Outer-Iter.   Inner-Iter.     Column Row Layer    Maximum-Head-Change  Column Row Layer    Maximum-Flux-Residual          L2-NORM 
          0                 1           2             2    2     1       0.3097450476E-02       2    2    1         0.1618632489E+00      0.3262190306E+00
          0                 2           1             2    2     1      -0.1393285918E-03       2    2    1        -0.7346595096E-02      0.1661351244E-01
          0                 3           1             6    2     1      -0.6708437158E-05       2    2    1         0.2635664237E-03      0.9180911167E-03

    ------------------------------------------------
       NWT REQUIRED            3 OUTER ITERATIONS 
       AND A TOTAL OF          4 INNER ITERATIONS.
    ------------------------------------------------

 NO OUTPUT CONTROL FOR STRESS PERIOD    3   TIME STEP   29
 
 SOLVING FOR HEAD 
                                                   Max.-Head-Change                         Max.-Flux-Residual
  Residual-Control   Outer-Iter.   Inner-Iter.     Column Row Layer    Maximum-Head-Change  Column Row Layer    Maximum-Flux-Residual          L2-NORM 
          0                 1           2             4   13     1       0.7724377569E-02       4   13    1         0.4429551254E+00      0.9462231753E+00
          0                 2           2             4   13     1      -0.3758833981E-03       4   13    1        -0.2177427092E-01      0.4428598250E-01
          0                 3           1             4   13     1       0.1474275601E-04       4   13    1         0.8628941205E-03      0.1765747577E-02

    ------------------------------------------------
       NWT REQUIRED            3 OUTER ITERATIONS 
       AND A TOTAL OF          5 INNER ITERATIONS.
    ------------------------------------------------

 NO OUTPUT CONTROL FOR STRESS PERIOD    3   TIME STEP   30



 STREAM LISTING     PERIOD      3   STEP       30

 LAYER ROW COL. STREAM  RCH.  FLOW INTO     FLOW TO   FLOW OUT OF   OVRLND.     DIRECT     STREAM       STREAM     STREAM     STREAM   STREAMBED  STREAMBED
                SEG.NO.  NO.  STRM. RCH.    AQUIFER    STRM. RCH.    RUNOFF     PRECIP       ET          HEAD       DEPTH      WIDTH   CONDCTNC.   GRADIENT

   1    1    1     1     1    4.0813E+01  3.0672E-01   4.0506E+01  0.000E+00  0.000E+00  0.000E+00  1.09439E+03  1.337E+00  1.571E+01  7.072E-02  1.446E+00
   1    2    2     1     2    4.0506E+01  4.7505E-01   4.0031E+01  0.000E+00  0.000E+00  0.000E+00  1.08939E+03  1.334E+00  1.566E+01  1.096E-01  1.445E+00
   1    3    3     1     3    4.0031E+01  4.0519E-01   3.9626E+01  0.000E+00  0.000E+00  0.000E+00  1.08375E+03  1.331E+00  1.559E+01  9.355E-02  1.444E+00
   1    3    4     1     4    3.9626E+01  3.7315E-01   3.9253E+01  0.000E+00  0.000E+00  0.000E+00  1.07874E+03  1.328E+00  1.553E+01  8.621E-02  1.443E+00
   1    4    5     2     1    3.7253E+01  3.5331E-01   3.6899E+01  0.000E+00  0.000E+00  0.000E+00  1.07346E+03  1.530E+00  1.200E+01  7.800E-02  1.510E+00
   1    5    6     2     2    3.6899E+01  2.7132E-01   3.6628E+01  0.000E+00  0.000E+00  0.000E+00  1.06803E+03  1.522E+00  1.200E+01  6.000E-02  1.507E+00
   1    6    6     2     3    3.6628E+01  2.7091E-01   3.6357E+01  0.000E+00  0.000E+00  0.000E+00  1.06331E+03  1.515E+00  1.200E+01  6.000E-02  1.505E+00
   1    7    6     2     4    3.6357E+01  2.7051E-01   3.6087E+01  0.000E+00  0.000E+00  0.000E+00  1.05858E+03  1.508E+00  1.200E+01  6.000E-02  1.503E+00
   1    8    6     2     5    3.6087E+01  2.7010E-01   3.5817E+01  0.000E+00  0.000E+00  0.000E+00  1.05386E+03  1.502E+00  1.200E+01  6.000E-02  1.501E+00
   1    3    5     3     1    2.0000E+00  2.8252E-01   1.7175E+00  0.000E+00  0.000E+00  0.000E+00  1.07555E+03  1.909E+00  9.636E+00  7.227E-02  1.955E+00
   1    3    6     3     2    1.7175E+00  2.4905E-01   1.4684E+00  0.000E+00  0.000E+00  0.000E+00  1.07264E+03  1.727E+00  8.909E+00  6.682E-02  1.864E+00
   1    3    7     3     3    1.4684E+00  1.9718E-01   1.2712E+00  0.000E+00  0.000E+00  0.000E+00  1.06987E+03  1.555E+00  8.218E+00  5.547E-02  1.777E+00
   1    4    8     3     4    1.2712E+00  2.2567E-01   1.0456E+00  0.000E+00  0.000E+00  0.000E+00  1.06682E+03  1.364E+00  7.455E+00  6.709E-02  1.682E+00
   1    5    8     3     5    1.0456E+00  1.5790E-01   8.8768E-01  0.000E+00  0.000E+00  0.000E+00  1.06362E+03  1.164E+00  6.655E+00  4.991E-02  1.582E+00
   1    6    8     3     6    8.8768E-01  5.5980E-02   8.3170E-01  0.000E+00  0.000E+00  0.000E+00  1.06158E+03  1.036E+00  6.145E+00  1.844E-02  1.518E+00
   1    5   10     4     1    1.0000E+01  9.0919E-02   9.9091E+00  0.000E+00  0.000E+00  0.000E+00  1.07836E+03  6.368E-01  1.000E+01  2.500E-02  1.212E+00
   1    5    9     4     2    9.9091E+00  1.8158E-01   9.7275E+00  0.000E+00  0.000E+00  0.000E+00  1.07154E+03  6.315E-01  1.000E+01  5.000E-02  1.211E+00
   1    6    8     4     3    9.7275E+00  1.2689E-01   9.6006E+00  0.000E+00  0.000E+00  0.000E+00  1.06381E+03  6.256E-01  1.000E+01  3.500E-02  1.209E+00
   1    6    8     5     1    1.0432E+01  2.2686E-01   1.0205E+01  0.000E+00  0.000E+00  0.000E+00  1.05868E+03  6.790E-01  1.542E+01  6.166E-02  1.226E+00
   1    7    7     5     2    1.0205E+01  2.7894E-01   9.9265E+00  0.000E+00  0.000E+00  0.000E+00  1.05417E+03  6.732E-01  1.519E+01  7.594E-02  1.224E+00
   1    8    7     5     3    9.9265E+00  1.9221E-01   9.7343E+00  0.000E+00  0.000E+00  0.000E+00  1.04992E+03  6.676E-01  1.497E+01  5.241E-02  1.223E+00
   1    8    6     5     4    9.7343E+00  1.3577E-01   9.5985E+00  0.000E+00  0.000E+00  0.000E+00  1.04691E+03  6.637E-01  1.482E+01  3.706E-02  1.221E+00
   1    9    6     6     1    4.5415E+01  2.8462E-01   4.5130E+01  0.000E+00  0.000E+00  0.000E+00  1.04447E+03  1.744E+00  1.200E+01  6.000E-02  1.581E+00
   1   10    7     6     2    4.5130E+01  2.8423E-01   4.4846E+01  0.000E+00  0.000E+00  0.000E+00  1.03992E+03  1.737E+00  1.200E+01  6.000E-02  1.579E+00
   1   11    7     6     3    4.4846E+01  2.8383E-01   4.4562E+01  0.000E+00  0.000E+00  0.000E+00  1.03537E+03  1.731E+00  1.200E+01  6.000E-02  1.577E+00
   1   12    7     6     4    4.4562E+01  2.8344E-01   4.4279E+01  0.000E+00  0.000E+00  0.000E+00  1.03081E+03  1.724E+00  1.200E+01  6.000E-02  1.575E+00
   1   13    7     6     5    4.4279E+01  1.3381E-02   4.4266E+01  0.000E+00  0.000E+00  0.000E+00  1.02763E+03  1.720E+00  1.200E+01  2.400E-02  1.859E-01
   1   14    9     7     1    1.5000E+02  1.3369E+00   1.4866E+02  0.000E+00  0.000E+00  0.000E+00  1.03987E+03  2.288E+00  5.529E+01  5.593E-01  7.968E-01
   1   13    8     7     2    1.4866E+02  1.8389E+00   1.4682E+02  0.000E+00  0.000E+00  0.000E+00  1.03478E+03  2.279E+00  5.526E+01  6.148E-01  9.971E-01
   1   13    7     7     3    1.4682E+02  1.4619E+00   1.4536E+02  0.000E+00  0.000E+00  0.000E+00  1.02969E+03  2.270E+00  5.522E+01  5.585E-01  8.726E-01
   1   13    6     8     1    1.8963E+02  9.9743E-01   1.8863E+02  0.000E+00  0.000E+00  0.000E+00  1.02495E+03  3.073E+00  4.455E+01  4.540E-01  7.323E-01
   1   13    5     8     2    1.8863E+02  2.1197E-01   1.8842E+02  0.000E+00  0.000E+00  0.000E+00  1.01869E+03  3.069E+00  4.450E+01  4.535E-01  1.558E-01
   1   13    4     8     3    1.8842E+02 -2.1599E+00   1.9058E+02  0.000E+00  0.000E+00  0.000E+00  1.01245E+03  3.075E+00  4.459E+01  4.543E+00 -1.585E-01
   1   13    3     8     4    1.9058E+02 -3.3402E+00   1.9392E+02  0.000E+00  0.000E+00  0.000E+00  1.00622E+03  3.092E+00  4.483E+01  4.568E+00 -2.437E-01
   1   13    2     8     5    1.9392E+02 -2.1774E+00   1.9610E+02  0.000E+00  0.000E+00  0.000E+00  9.99983E+02  3.108E+00  4.507E+01  4.593E+00 -1.580E-01
   1   13    1     8     6    1.9610E+02 -1.7144E+00   1.9781E+02  0.000E+00  0.000E+00  0.000E+00  9.94995E+02  3.120E+00  4.524E+01  2.766E+00 -2.066E-01
   1    6    8     9     1    0.0000E+00  0.0000E+00   0.0000E+00  0.000E+00  0.000E+00  0.000E+00  1.07850E+03  0.000E+00  4.000E+00  0.000E+00  1.000E+00





UNSATURATED ZONE PACKAGE VOLUMETRIC BUDGET FOR  TIME STEP    30 STRESS PERIOD    3
  ------------------------------------------------------------------------------



     CUMULATIVE VOLUMES      L**3       RATES FOR THIS TIME STEP      L**3/T
     ------------------                 ------------------------

           IN:                                      IN:
           ---                                      ---
        INFILTRATION =       73224.0000          INFILTRATION =       0.0000E+00

          OUT:                                     OUT:
          ----                                     ----
              UZF ET =       0.0000E+00                UZF ET =       0.0000E+00
        UZF RECHARGE =      409658.7542          UZF RECHARGE =           0.1850

            IN - OUT =     -336434.7542              IN - OUT =          -0.1850

          STORAGE:                                 STORAGE:
          --------                                 --------
      STORAGE CHANGE =     -336371.7071        STORAGE CHANGE =          -0.1850

 PERCENT DISCREPANCY IS DIFFERENCE BETWEEN IN-OUT MINUS CHANGE IN STORAGE
 DIVIDED BY THE AVERAGE OF IN AND OUT TIMES 100

 PERCENT DISCREPANCY =          -0.00     PERCENT DISCREPANCY =          -0.01






1
  VOLUMETRIC BUDGET FOR ENTIRE MODEL AT END OF TIME STEP   30, STRESS PERIOD   3
  ------------------------------------------------------------------------------

     CUMULATIVE VOLUMES      L**3       RATES FOR THIS TIME STEP      L**3/T
     ------------------                 ------------------------

           IN:                                      IN:
           ---                                      ---
    AWU WELLS            =           0.0000      AWU WELLS            =           0.0000
    DIVERSION SEGMENTS   =           0.0000      DIVERSION SEGMENTS   =           0.0000
    GW IRRIGATION        =           0.0000      GW IRRIGATION        =           0.0000
    SW IRRIGATION        =           0.0000      SW IRRIGATION        =           0.0000
    EFFICIENCY FACTOR GW =           0.0000      EFFICIENCY FACTOR GW =           0.0000
    EFFICIENCY FACTOR SW =           0.0000      EFFICIENCY FACTOR SW =           0.0000

                TOTAL IN =           0.0000                  TOTAL IN =           0.0000

          OUT:                                     OUT:
          ----                                     ----
    AWU WELLS            =           0.0000      AWU WELLS            =           0.0000
    DIVERSION SEGMENTS   =           0.0000      DIVERSION SEGMENTS   =           0.0000
    GW IRRIGATION        =           0.0000      GW IRRIGATION        =           0.0000
    SW IRRIGATION        =           0.0000      SW IRRIGATION        =           0.0000
    EFFICIENCY FACTOR GW =           0.0000      EFFICIENCY FACTOR GW =           0.0000
    EFFICIENCY FACTOR SW =           0.0000      EFFICIENCY FACTOR SW =           0.0000

               TOTAL OUT =           0.0000                 TOTAL OUT =           0.0000

                IN - OUT =           0.0000                  IN - OUT =           0.0000

     PERCENT DISCREPANCY =           0.00         PERCENT DISCREPANCY =           0.00



1
  VOLUMETRIC BUDGET FOR ENTIRE MODEL AT END OF TIME STEP   30, STRESS PERIOD   3
  ------------------------------------------------------------------------------

     CUMULATIVE VOLUMES      L**3       RATES FOR THIS TIME STEP      L**3/T
     ------------------                 ------------------------

           IN:                                      IN:
           ---                                      ---
             STORAGE     =     3526856.2500               STORAGE     =           0.5210
       CONSTANT HEAD     =           0.0000         CONSTANT HEAD     =           0.0000
     HEAD DEP BOUNDS     =     1526797.6250       HEAD DEP BOUNDS     =           0.2858
      STREAM LEAKAGE     =    59147964.0000        STREAM LEAKAGE     =          12.3943
        UZF RECHARGE     =      409658.7188          UZF RECHARGE     =           0.1850
               GW ET     =           0.0000                 GW ET     =           0.0000
     SURFACE LEAKAGE     =           0.0000       SURFACE LEAKAGE     =           0.0000
    AWU WELLS            =           0.0000      AWU WELLS            =           0.0000

                TOTAL IN =    64611276.0000                  TOTAL IN =          13.3862

          OUT:                                     OUT:
          ----                                     ----
             STORAGE     =     6749980.5000               STORAGE     =           3.6944
       CONSTANT HEAD     =           0.0000         CONSTANT HEAD     =           0.0000
     HEAD DEP BOUNDS     =     1533269.0000       HEAD DEP BOUNDS     =           0.2894
      STREAM LEAKAGE     =    56196768.0000        STREAM LEAKAGE     =           9.3919
        UZF RECHARGE     =           0.0000          UZF RECHARGE     =           0.0000
               GW ET     =      138468.2188                 GW ET     =       1.0247E-02
     SURFACE LEAKAGE     =           0.0000       SURFACE LEAKAGE     =           0.0000
    AWU WELLS            =           0.0000      AWU WELLS            =           0.0000

               TOTAL OUT =    64618484.0000                 TOTAL OUT =          13.3860

                IN - OUT =       -7208.0000                  IN - OUT =       1.8406E-04

     PERCENT DISCREPANCY =          -0.01         PERCENT DISCREPANCY =           0.00






         TIME SUMMARY AT END OF TIME STEP   30 IN STRESS PERIOD    3
                    SECONDS     MINUTES      HOURS       DAYS        YEARS
                    -----------------------------------------------------------
   TIME STEP LENGTH  87600.      1460.0      24.333      1.0139     2.77588E-03
 STRESS PERIOD TIME 2.62800E+06  43800.      730.00      30.417     8.32763E-02
         TOTAL TIME 5.34240E+06  89040.      1484.0      61.833     0.16929    
1
1
                            STRESS PERIOD NO.    4, LENGTH =   2628000.    
                            -----------------------------------------------

                              NUMBER OF TIME STEPS =    30

                               MULTIPLIER FOR DELT =     1.000

                            INITIAL TIME STEP SIZE =   87600.00    

 REUSING NON-PARAMETER GHB CELLS FROM LAST STRESS PERIOD

      2 GHB CELLS

 REUSING STREAM SEGMENT DATA FROM LAST STRESS PERIOD



            AREAL INFILTRATION RATE
 READING ON UNIT   19 WITH FORMAT: (10F4.0)            

            1           2           3           4           5           6           7           8           9          10
 ........................................................................................................................
   1    0.000       0.000       0.000       0.000       0.000       0.000       0.000       0.000       0.000       0.000    
   2    0.000       0.000       0.000       0.000       0.000       0.000       0.000       0.000       0.000       0.000    
   3    0.000       0.000       0.000       0.000       0.000       0.000       0.000       0.000       0.000       0.000    
   4    0.000       0.000       0.000       0.000       0.000       0.000       0.000       0.000       0.000       0.000    
   5    0.000       0.000       0.000       0.000       0.000       0.000       0.000       0.000       0.000       0.000    
   6    0.000       0.000       0.000       0.000       0.000       0.000       0.000       0.000       0.000       0.000    
   7    0.000       0.000       0.000       0.000       0.000       0.000       0.000       0.000       0.000       0.000    
   8    0.000       0.000       0.000       0.000       0.000       0.000       0.000       0.000       0.000       0.000    
   9    0.000       0.000       0.000       0.000       0.000       0.000       0.000       0.000       0.000       0.000    
  10    0.000       0.000       0.000       0.000       0.000       0.000       0.000       0.000       0.000       0.000    
  11    0.000       0.000       0.000       0.000       0.000       0.000       0.000       0.000       0.000       0.000    
  12    0.000       0.000       0.000       0.000       0.000       0.000       0.000       0.000       0.000       0.000    
  13    0.000       0.000       0.000       0.000       0.000       0.000       0.000       0.000       0.000       0.000    
  14    0.000       0.000       0.000       0.000       0.000       0.000       0.000       0.000       0.000       0.000    
  15    0.000       0.000       0.000       0.000       0.000       0.000       0.000       0.000       0.000       0.000    

                  ET RATE =  1.000000E-10

 USING ET EXTINCTION DEPTH FROM PREVIOUS STRESS PERIOD. CURRENT PERIOD IS:       4

 USING EXTINCTION WATER CONTENT FROM PREVIOUS STRESS PERIOD. CURRENT PERIOD IS:       4

 PROCESSING AWU STRESS PERIOD DATA

 READING AWU STRESS PERIOD DATA

 READING IRRIGATION STREAM

 READING IRRIGATION WELL

 READING SUPPLEMENTAL WEL

 END PROCESSING AWU STRESS PERIOD DATA OPTIONS
 
 SOLVING FOR HEAD 
                                                   Max.-Head-Change                         Max.-Flux-Residual
  Residual-Control   Outer-Iter.   Inner-Iter.     Column Row Layer    Maximum-Head-Change  Column Row Layer    Maximum-Flux-Residual          L2-NORM 
          0                 1           2             4   13     1       0.7436916406E-02       4   13    1         0.4262925739E+00      0.9365162757E+00
          0                 2           2             4   13     1      -0.3616183706E-03       4   13    1        -0.2093926824E-01      0.4380486633E-01
          0                 3           1             4   13     1       0.1417945800E-04       4   13    1         0.8295813177E-03      0.1748298077E-02

    ------------------------------------------------
       NWT REQUIRED            3 OUTER ITERATIONS 
       AND A TOTAL OF          5 INNER ITERATIONS.
    ------------------------------------------------

 NO OUTPUT CONTROL FOR STRESS PERIOD    4   TIME STEP    1
 
 SOLVING FOR HEAD 
                                                   Max.-Head-Change                         Max.-Flux-Residual
  Residual-Control   Outer-Iter.   Inner-Iter.     Column Row Layer    Maximum-Head-Change  Column Row Layer    Maximum-Flux-Residual          L2-NORM 
          0                 1           2             2   13     1       0.6849081237E-02       2   13    1         0.3862927346E+00      0.8848211347E+00
          0                 2           2             4   13     1      -0.3265158929E-03       4   13    1        -0.1889129789E-01      0.4140233872E-01
          0                 3           1             4   13     1       0.1278474325E-04       4   13    1         0.7473515197E-03      0.1666212329E-02

    ------------------------------------------------
       NWT REQUIRED            3 OUTER ITERATIONS 
       AND A TOTAL OF          5 INNER ITERATIONS.
    ------------------------------------------------

 NO OUTPUT CONTROL FOR STRESS PERIOD    4   TIME STEP    2
 
 SOLVING FOR HEAD 
                                                   Max.-Head-Change                         Max.-Flux-Residual
  Residual-Control   Outer-Iter.   Inner-Iter.     Column Row Layer    Maximum-Head-Change  Column Row Layer    Maximum-Flux-Residual          L2-NORM 
          0                 1           2             2   13     1       0.6309266337E-02       2   13    1         0.3557961448E+00      0.8387525200E+00
          0                 2           2             4   13     1      -0.2950738782E-03       4   13    1        -0.1705759860E-01      0.3927312448E-01
          0                 3           1             4   13     1       0.1154294884E-04       4   13    1         0.6741958950E-03      0.1594610389E-02

    ------------------------------------------------
       NWT REQUIRED            3 OUTER ITERATIONS 
       AND A TOTAL OF          5 INNER ITERATIONS.
    ------------------------------------------------

 NO OUTPUT CONTROL FOR STRESS PERIOD    4   TIME STEP    3
 
 SOLVING FOR HEAD 
                                                   Max.-Head-Change                         Max.-Flux-Residual
  Residual-Control   Outer-Iter.   Inner-Iter.     Column Row Layer    Maximum-Head-Change  Column Row Layer    Maximum-Flux-Residual          L2-NORM 
          0                 1           2             2   13     1       0.5812578444E-02       2   13    1         0.3277377558E+00      0.7977191212E+00
          0                 2           2             4   13     1      -0.2668963269E-03       4   13    1        -0.1541496583E-01      0.3737856168E-01
          0                 3           1             4   13     1       0.1042339059E-04       4   13    1         0.6082548698E-03      0.1531757171E-02

    ------------------------------------------------
       NWT REQUIRED            3 OUTER ITERATIONS 
       AND A TOTAL OF          5 INNER ITERATIONS.
    ------------------------------------------------

 NO OUTPUT CONTROL FOR STRESS PERIOD    4   TIME STEP    4
 
 SOLVING FOR HEAD 
                                                   Max.-Head-Change                         Max.-Flux-Residual
  Residual-Control   Outer-Iter.   Inner-Iter.     Column Row Layer    Maximum-Head-Change  Column Row Layer    Maximum-Flux-Residual          L2-NORM 
          0                 1           2             2   13     1       0.5355778577E-02       2   13    1         0.3019345473E+00      0.7611838344E+00
          0                 2           2             4   13     1      -0.2416161702E-03       4   13    1        -0.1394182986E-01      0.3569988923E-01
          0                 3           1             4   13     1       0.9430824905E-05       4   13    1         0.5498286982E-03      0.1476031102E-02

    ------------------------------------------------
       NWT REQUIRED            3 OUTER ITERATIONS 
       AND A TOTAL OF          5 INNER ITERATIONS.
    ------------------------------------------------

 NO OUTPUT CONTROL FOR STRESS PERIOD    4   TIME STEP    5
 
 SOLVING FOR HEAD 
                                                   Max.-Head-Change                         Max.-Flux-Residual
  Residual-Control   Outer-Iter.   Inner-Iter.     Column Row Layer    Maximum-Head-Change  Column Row Layer    Maximum-Flux-Residual          L2-NORM 
          0                 1           2             2    2     1       0.5228163261E-02       2   13    1         0.2782016812E+00      0.7286480229E+00
          0                 2           2             2    2     1      -0.2352219287E-03       4   13    1        -0.1262214518E-01      0.3419635187E-01
          0                 3           1             4   13     1       0.8533453628E-05       4   13    1         0.4970242098E-03      0.1424043777E-02

    ------------------------------------------------
       NWT REQUIRED            3 OUTER ITERATIONS 
       AND A TOTAL OF          5 INNER ITERATIONS.
    ------------------------------------------------

 NO OUTPUT CONTROL FOR STRESS PERIOD    4   TIME STEP    6
 
 SOLVING FOR HEAD 
                                                   Max.-Head-Change                         Max.-Flux-Residual
  Residual-Control   Outer-Iter.   Inner-Iter.     Column Row Layer    Maximum-Head-Change  Column Row Layer    Maximum-Flux-Residual          L2-NORM 
          0                 1           2             2    2     1       0.5192262228E-02       2    2    1         0.2713675507E+00      0.6996799810E+00
          0                 2           2             2    2     1      -0.2335888048E-03       2    2    1        -0.1231872818E-01      0.3286696897E-01
          0                 3           1             2    2     1       0.8309475228E-05       4   13    1         0.4496073507E-03      0.1382492953E-02

    ------------------------------------------------
       NWT REQUIRED            3 OUTER ITERATIONS 
       AND A TOTAL OF          5 INNER ITERATIONS.
    ------------------------------------------------

 NO OUTPUT CONTROL FOR STRESS PERIOD    4   TIME STEP    7
 
 SOLVING FOR HEAD 
                                                   Max.-Head-Change                         Max.-Flux-Residual
  Residual-Control   Outer-Iter.   Inner-Iter.     Column Row Layer    Maximum-Head-Change  Column Row Layer    Maximum-Flux-Residual          L2-NORM 
          0                 1           2             2    2     1       0.5156897992E-02       2    2    1         0.2695063322E+00      0.6738775876E+00
          0                 2           2             2    2     1      -0.2319872162E-03       2    2    1        -0.1223353028E-01      0.3168778073E-01
          0                 3           1             2    2     1       0.8252026450E-05       2    2    1         0.4389539014E-03      0.1343043341E-02

    ------------------------------------------------
       NWT REQUIRED            3 OUTER ITERATIONS 
       AND A TOTAL OF          5 INNER ITERATIONS.
    ------------------------------------------------

 NO OUTPUT CONTROL FOR STRESS PERIOD    4   TIME STEP    8
 
 SOLVING FOR HEAD 
                                                   Max.-Head-Change                         Max.-Flux-Residual
  Residual-Control   Outer-Iter.   Inner-Iter.     Column Row Layer    Maximum-Head-Change  Column Row Layer    Maximum-Flux-Residual          L2-NORM 
          0                 1           2             2    2     1       0.5121967336E-02       2    2    1         0.2676679961E+00      0.6508795466E+00
          0                 2           2             2    2     1      -0.2304053098E-03       2    2    1        -0.1214938330E-01      0.3064329594E-01
          0                 3           1             2    2     1       0.8195285943E-05       2    2    1         0.4358952555E-03      0.1309696406E-02

    ------------------------------------------------
       NWT REQUIRED            3 OUTER ITERATIONS 
       AND A TOTAL OF          5 INNER ITERATIONS.
    ------------------------------------------------

 NO OUTPUT CONTROL FOR STRESS PERIOD    4   TIME STEP    9
 
 SOLVING FOR HEAD 
                                                   Max.-Head-Change                         Max.-Flux-Residual
  Residual-Control   Outer-Iter.   Inner-Iter.     Column Row Layer    Maximum-Head-Change  Column Row Layer    Maximum-Flux-Residual          L2-NORM 
          0                 1           2             2    2     1       0.5087549703E-02       2    2    1         0.2658566961E+00      0.6303570574E+00
          0                 2           2             2    2     1      -0.2288466600E-03       2    2    1        -0.1206647585E-01      0.2971488556E-01
          0                 3           1             2    2     1       0.8139379938E-05       2    2    1         0.4328817711E-03      0.1282150016E-02

    ------------------------------------------------
       NWT REQUIRED            3 OUTER ITERATIONS 
       AND A TOTAL OF          5 INNER ITERATIONS.
    ------------------------------------------------

 NO OUTPUT CONTROL FOR STRESS PERIOD    4   TIME STEP   10
 
 SOLVING FOR HEAD 
                                                   Max.-Head-Change                         Max.-Flux-Residual
  Residual-Control   Outer-Iter.   Inner-Iter.     Column Row Layer    Maximum-Head-Change  Column Row Layer    Maximum-Flux-Residual          L2-NORM 
          0                 1           2             2    2     1       0.5053636130E-02       2    2    1         0.2640719974E+00      0.6120269008E+00
          0                 2           2             2    2     1      -0.2273109014E-03       2    2    1        -0.1198479003E-01      0.2889049429E-01
          0                 3           1             2    2     1       0.8084298367E-05       2    2    1         0.4299129313E-03      0.1256994385E-02

    ------------------------------------------------
       NWT REQUIRED            3 OUTER ITERATIONS 
       AND A TOTAL OF          5 INNER ITERATIONS.
    ------------------------------------------------

 NO OUTPUT CONTROL FOR STRESS PERIOD    4   TIME STEP   11
 
 SOLVING FOR HEAD 
                                                   Max.-Head-Change                         Max.-Flux-Residual
  Residual-Control   Outer-Iter.   Inner-Iter.     Column Row Layer    Maximum-Head-Change  Column Row Layer    Maximum-Flux-Residual          L2-NORM 
          0                 1           2             2    2     1       0.5020218867E-02       2    2    1         0.2623134331E+00      0.5956263945E+00
          0                 2           2             2    2     1      -0.2257976392E-03       2    2    1        -0.1190430128E-01      0.2815667608E-01
          0                 3           1             2    2     1       0.8030024283E-05       2    2    1         0.4269875901E-03      0.1235946037E-02

    ------------------------------------------------
       NWT REQUIRED            3 OUTER ITERATIONS 
       AND A TOTAL OF          5 INNER ITERATIONS.
    ------------------------------------------------

 NO OUTPUT CONTROL FOR STRESS PERIOD    4   TIME STEP   12
 
 SOLVING FOR HEAD 
                                                   Max.-Head-Change                         Max.-Flux-Residual
  Residual-Control   Outer-Iter.   Inner-Iter.     Column Row Layer    Maximum-Head-Change  Column Row Layer    Maximum-Flux-Residual          L2-NORM 
          0                 1           2             2    2     1       0.4987202511E-02       2    2    1         0.2605760472E+00      0.5809250533E+00
          0                 2           2             2    2     1      -0.2243025959E-03       2    2    1        -0.1182478623E-01      0.2750115820E-01
          0                 3           1             2    2     1       0.7976406652E-05       2    2    1         0.4240979125E-03      0.1216693685E-02

    ------------------------------------------------
       NWT REQUIRED            3 OUTER ITERATIONS 
       AND A TOTAL OF          5 INNER ITERATIONS.
    ------------------------------------------------

 NO OUTPUT CONTROL FOR STRESS PERIOD    4   TIME STEP   13
 
 SOLVING FOR HEAD 
                                                   Max.-Head-Change                         Max.-Flux-Residual
  Residual-Control   Outer-Iter.   Inner-Iter.     Column Row Layer    Maximum-Head-Change  Column Row Layer    Maximum-Flux-Residual          L2-NORM 
          0                 1           2             2    2     1       0.4954667129E-02       2    2    1         0.2588640032E+00      0.5677234322E+00
          0                 2           2             2    2     1      -0.2228293528E-03       2    2    1        -0.1174643276E-01      0.2691333527E-01
          0                 3           1             2    2     1       0.7923571949E-05       2    2    1         0.4212505576E-03      0.1198587451E-02

    ------------------------------------------------
       NWT REQUIRED            3 OUTER ITERATIONS 
       AND A TOTAL OF          5 INNER ITERATIONS.
    ------------------------------------------------

 NO OUTPUT CONTROL FOR STRESS PERIOD    4   TIME STEP   14
 
 SOLVING FOR HEAD 
                                                   Max.-Head-Change                         Max.-Flux-Residual
  Residual-Control   Outer-Iter.   Inner-Iter.     Column Row Layer    Maximum-Head-Change  Column Row Layer    Maximum-Flux-Residual          L2-NORM 
          0                 1           2             2    2     1       0.4922604299E-02       2    2    1         0.2571768987E+00      0.5558267897E+00
          0                 2           2             2    2     1      -0.2213775696E-03       2    2    1        -0.1166922467E-01      0.2637931796E-01
          0                 3           1             2    2     1       0.7871509370E-05       2    2    1         0.4184450598E-03      0.1182486807E-02

    ------------------------------------------------
       NWT REQUIRED            3 OUTER ITERATIONS 
       AND A TOTAL OF          5 INNER ITERATIONS.
    ------------------------------------------------

 NO OUTPUT CONTROL FOR STRESS PERIOD    4   TIME STEP   15
 
 SOLVING FOR HEAD 
                                                   Max.-Head-Change                         Max.-Flux-Residual
  Residual-Control   Outer-Iter.   Inner-Iter.     Column Row Layer    Maximum-Head-Change  Column Row Layer    Maximum-Flux-Residual          L2-NORM 
          0                 1           2             2    2     1       0.4891006484E-02       2    2    1         0.2555142952E+00      0.5450938884E+00
          0                 2           2             2    2     1      -0.2199468646E-03       2    2    1        -0.1159313964E-01      0.2590046387E-01
          0                 3           1             2    2     1       0.7820203934E-05       2    2    1         0.4156804695E-03      0.1168942625E-02

    ------------------------------------------------
       NWT REQUIRED            3 OUTER ITERATIONS 
       AND A TOTAL OF          5 INNER ITERATIONS.
    ------------------------------------------------

 NO OUTPUT CONTROL FOR STRESS PERIOD    4   TIME STEP   16
 
 SOLVING FOR HEAD 
                                                   Max.-Head-Change                         Max.-Flux-Residual
  Residual-Control   Outer-Iter.   Inner-Iter.     Column Row Layer    Maximum-Head-Change  Column Row Layer    Maximum-Flux-Residual          L2-NORM 
          0                 1           2             2    2     1       0.4859779189E-02       2    2    1         0.2538712466E+00      0.5353712322E+00
          0                 2           2             2    2     1      -0.2185329971E-03       2    2    1        -0.1151795268E-01      0.2547063139E-01
          0                 3           1             2    2     1       0.7769504850E-05       2    2    1         0.4129486450E-03      0.1156727782E-02

    ------------------------------------------------
       NWT REQUIRED            3 OUTER ITERATIONS 
       AND A TOTAL OF          5 INNER ITERATIONS.
    ------------------------------------------------

 NO OUTPUT CONTROL FOR STRESS PERIOD    4   TIME STEP   17
 
 SOLVING FOR HEAD 
                                                   Max.-Head-Change                         Max.-Flux-Residual
  Residual-Control   Outer-Iter.   Inner-Iter.     Column Row Layer    Maximum-Head-Change  Column Row Layer    Maximum-Flux-Residual          L2-NORM 
          0                 1           2             2    2     1       0.4829003022E-02       2    2    1         0.2522519651E+00      0.5265433608E+00
          0                 2           2             2    2     1      -0.2171395742E-03       2    2    1        -0.1144385500E-01      0.2508348936E-01
          0                 3           1             2    2     1       0.7719539824E-05       2    2    1         0.4102565231E-03      0.1146588621E-02

    ------------------------------------------------
       NWT REQUIRED            3 OUTER ITERATIONS 
       AND A TOTAL OF          5 INNER ITERATIONS.
    ------------------------------------------------

 NO OUTPUT CONTROL FOR STRESS PERIOD    4   TIME STEP   18
 
 SOLVING FOR HEAD 
                                                   Max.-Head-Change                         Max.-Flux-Residual
  Residual-Control   Outer-Iter.   Inner-Iter.     Column Row Layer    Maximum-Head-Change  Column Row Layer    Maximum-Flux-Residual          L2-NORM 
          0                 1           2             2    2     1       0.4798670080E-02       2    2    1         0.2506560757E+00      0.5184994856E+00
          0                 2           2             2    2     1      -0.2157662819E-03       2    2    1        -0.1137083164E-01      0.2473374775E-01
          0                 3           1             2    2     1       0.7670299277E-05       2    2    1         0.4076036449E-03      0.1138646865E-02

    ------------------------------------------------
       NWT REQUIRED            3 OUTER ITERATIONS 
       AND A TOTAL OF          5 INNER ITERATIONS.
    ------------------------------------------------

 NO OUTPUT CONTROL FOR STRESS PERIOD    4   TIME STEP   19
 
 SOLVING FOR HEAD 
                                                   Max.-Head-Change                         Max.-Flux-Residual
  Residual-Control   Outer-Iter.   Inner-Iter.     Column Row Layer    Maximum-Head-Change  Column Row Layer    Maximum-Flux-Residual          L2-NORM 
          0                 1           2             2    2     1       0.4768686264E-02       2    2    1         0.2490786090E+00      0.5111528540E+00
          0                 2           2             2    2     1      -0.2143825956E-03       2    2    1        -0.1129865419E-01      0.2437735616E-01
          0                 3           1             2    2     1       0.7610396601E-05       2    2    1         0.4050565337E-03      0.1113501893E-02

    ------------------------------------------------
       NWT REQUIRED            3 OUTER ITERATIONS 
       AND A TOTAL OF          5 INNER ITERATIONS.
    ------------------------------------------------

 NO OUTPUT CONTROL FOR STRESS PERIOD    4   TIME STEP   20
 
 SOLVING FOR HEAD 
                                                   Max.-Head-Change                         Max.-Flux-Residual
  Residual-Control   Outer-Iter.   Inner-Iter.     Column Row Layer    Maximum-Head-Change  Column Row Layer    Maximum-Flux-Residual          L2-NORM 
          0                 1           2             2    2     1       0.4739236396E-02       2    2    1         0.2475291341E+00      0.5044157777E+00
          0                 2           2             2    2     1      -0.2129357959E-03       2    2    1        -0.1122775214E-01      0.2402460861E-01
          0                 3           1             2    2     1       0.7570313722E-05       2    2    1         0.4028115044E-03      0.1105007853E-02

    ------------------------------------------------
       NWT REQUIRED            3 OUTER ITERATIONS 
       AND A TOTAL OF          5 INNER ITERATIONS.
    ------------------------------------------------

 NO OUTPUT CONTROL FOR STRESS PERIOD    4   TIME STEP   21
 
 SOLVING FOR HEAD 
                                                   Max.-Head-Change                         Max.-Flux-Residual
  Residual-Control   Outer-Iter.   Inner-Iter.     Column Row Layer    Maximum-Head-Change  Column Row Layer    Maximum-Flux-Residual          L2-NORM 
          0                 1           2             2    2     1       0.4710245457E-02       2    2    1         0.2460040279E+00      0.4982158888E+00
          0                 2           2             2    2     1      -0.2116200284E-03       2    2    1        -0.1115797724E-01      0.2375058014E-01
          0                 3           1             2    2     1       0.7523167290E-05       2    2    1         0.4002869642E-03      0.1097459122E-02

    ------------------------------------------------
       NWT REQUIRED            3 OUTER ITERATIONS 
       AND A TOTAL OF          5 INNER ITERATIONS.
    ------------------------------------------------

 NO OUTPUT CONTROL FOR STRESS PERIOD    4   TIME STEP   22
 
 SOLVING FOR HEAD 
                                                   Max.-Head-Change                         Max.-Flux-Residual
  Residual-Control   Outer-Iter.   Inner-Iter.     Column Row Layer    Maximum-Head-Change  Column Row Layer    Maximum-Flux-Residual          L2-NORM 
          0                 1           2             2    2     1       0.4681670946E-02       2    2    1         0.2445008777E+00      0.4924948405E+00
          0                 2           2             2    2     1      -0.2103232284E-03       2    2    1        -0.1108920954E-01      0.2349819361E-01
          0                 3           1             2    2     1       0.7476702606E-05       2    2    1         0.3977989381E-03      0.1090059691E-02

    ------------------------------------------------
       NWT REQUIRED            3 OUTER ITERATIONS 
       AND A TOTAL OF          5 INNER ITERATIONS.
    ------------------------------------------------

 NO OUTPUT CONTROL FOR STRESS PERIOD    4   TIME STEP   23
 
 SOLVING FOR HEAD 
                                                   Max.-Head-Change                         Max.-Flux-Residual
  Residual-Control   Outer-Iter.   Inner-Iter.     Column Row Layer    Maximum-Head-Change  Column Row Layer    Maximum-Flux-Residual          L2-NORM 
          0                 1           2             2    2     1       0.4653419509E-02       2    2    1         0.2430147572E+00      0.4871995775E+00
          0                 2           2             2    2     1      -0.2090411258E-03       2    2    1        -0.1102122285E-01      0.2326488792E-01
          0                 3           1             2    2     1       0.7430764458E-05       2    2    1         0.3953392014E-03      0.1084020945E-02

    ------------------------------------------------
       NWT REQUIRED            3 OUTER ITERATIONS 
       AND A TOTAL OF          5 INNER ITERATIONS.
    ------------------------------------------------

 NO OUTPUT CONTROL FOR STRESS PERIOD    4   TIME STEP   24
 
 SOLVING FOR HEAD 
                                                   Max.-Head-Change                         Max.-Flux-Residual
  Residual-Control   Outer-Iter.   Inner-Iter.     Column Row Layer    Maximum-Head-Change  Column Row Layer    Maximum-Flux-Residual          L2-NORM 
          0                 1           2             2    2     1       0.4625658553E-02       2    2    1         0.2415545024E+00      0.4822755997E+00
          0                 2           2             2    2     1      -0.2077813787E-03       2    2    1        -0.1095442292E-01      0.2304814931E-01
          0                 3           1             2    2     1       0.7385629869E-05       2    2    1         0.3929225111E-03      0.1077889973E-02

    ------------------------------------------------
       NWT REQUIRED            3 OUTER ITERATIONS 
       AND A TOTAL OF          5 INNER ITERATIONS.
    ------------------------------------------------

 NO OUTPUT CONTROL FOR STRESS PERIOD    4   TIME STEP   25
 
 SOLVING FOR HEAD 
                                                   Max.-Head-Change                         Max.-Flux-Residual
  Residual-Control   Outer-Iter.   Inner-Iter.     Column Row Layer    Maximum-Head-Change  Column Row Layer    Maximum-Flux-Residual          L2-NORM 
          0                 1           2             2    2     1       0.4598207044E-02       2    2    1         0.2401105571E+00      0.4776855210E+00
          0                 2           2             2    2     1      -0.2065357077E-03       2    2    1        -0.1088837089E-01      0.2281755104E-01
          0                 3           1             5    3     1       0.7397611780E-05       2    2    1         0.3905329372E-03      0.1066638011E-02

    ------------------------------------------------
       NWT REQUIRED            3 OUTER ITERATIONS 
       AND A TOTAL OF          5 INNER ITERATIONS.
    ------------------------------------------------

 NO OUTPUT CONTROL FOR STRESS PERIOD    4   TIME STEP   26
 
 SOLVING FOR HEAD 
                                                   Max.-Head-Change                         Max.-Flux-Residual
  Residual-Control   Outer-Iter.   Inner-Iter.     Column Row Layer    Maximum-Head-Change  Column Row Layer    Maximum-Flux-Residual          L2-NORM 
          0                 1           2             2    2     1       0.4571146325E-02       2    2    1         0.2386872130E+00      0.4733918438E+00
          0                 2           2             2    2     1      -0.2053078320E-03       2    2    1        -0.1082326369E-01      0.2261965099E-01
          0                 3           1             5    3     1       0.7518347168E-05       2    2    1         0.3881776225E-03      0.1060958381E-02

    ------------------------------------------------
       NWT REQUIRED            3 OUTER ITERATIONS 
       AND A TOTAL OF          5 INNER ITERATIONS.
    ------------------------------------------------

 NO OUTPUT CONTROL FOR STRESS PERIOD    4   TIME STEP   27
 
 SOLVING FOR HEAD 
                                                   Max.-Head-Change                         Max.-Flux-Residual
  Residual-Control   Outer-Iter.   Inner-Iter.     Column Row Layer    Maximum-Head-Change  Column Row Layer    Maximum-Flux-Residual          L2-NORM 
          0                 1           2             2    2     1       0.4544470229E-02       2    2    1         0.2372841281E+00      0.4693618094E+00
          0                 2           2             2    2     1      -0.2040974516E-03       2    2    1        -0.1075908479E-01      0.2244122350E-01
          0                 3           1             5    3     1       0.7630250044E-05       2    2    1         0.3858558997E-03      0.1056051127E-02

    ------------------------------------------------
       NWT REQUIRED            3 OUTER ITERATIONS 
       AND A TOTAL OF          5 INNER ITERATIONS.
    ------------------------------------------------

 NO OUTPUT CONTROL FOR STRESS PERIOD    4   TIME STEP   28
 
 SOLVING FOR HEAD 
                                                   Max.-Head-Change                         Max.-Flux-Residual
  Residual-Control   Outer-Iter.   Inner-Iter.     Column Row Layer    Maximum-Head-Change  Column Row Layer    Maximum-Flux-Residual          L2-NORM 
          0                 1           2             2    2     1       0.4628141051E-02       2    2    1         0.2416542990E+00      0.4632680760E+00
          0                 2           2             2    2     1      -0.2078567331E-03       2    2    1        -0.1095731716E-01      0.2307397327E-01
          0                 3           1             4   13     1      -0.7668720894E-05       4   13    1        -0.4532051871E-03      0.1220527227E-02

    ------------------------------------------------
       NWT REQUIRED            3 OUTER ITERATIONS 
       AND A TOTAL OF          5 INNER ITERATIONS.
    ------------------------------------------------

 NO OUTPUT CONTROL FOR STRESS PERIOD    4   TIME STEP   29
 
 SOLVING FOR HEAD 
                                                   Max.-Head-Change                         Max.-Flux-Residual
  Residual-Control   Outer-Iter.   Inner-Iter.     Column Row Layer    Maximum-Head-Change  Column Row Layer    Maximum-Flux-Residual          L2-NORM 
          0                 1           2             2    2     1       0.7953298988E-02       2    2    1         0.4156111052E+00      0.9962002083E+00
          0                 2           2             2    2     1      -0.3575961557E-03       4   13    1        -0.2003108381E-01      0.4825047004E-01
          0                 3           1             4   13     1       0.1358967965E-04       4   13    1         0.7961744222E-03      0.1879179772E-02

    ------------------------------------------------
       NWT REQUIRED            3 OUTER ITERATIONS 
       AND A TOTAL OF          5 INNER ITERATIONS.
    ------------------------------------------------

 NO OUTPUT CONTROL FOR STRESS PERIOD    4   TIME STEP   30



 STREAM LISTING     PERIOD      4   STEP       30

 LAYER ROW COL. STREAM  RCH.  FLOW INTO     FLOW TO   FLOW OUT OF   OVRLND.     DIRECT     STREAM       STREAM     STREAM     STREAM   STREAMBED  STREAMBED
                SEG.NO.  NO.  STRM. RCH.    AQUIFER    STRM. RCH.    RUNOFF     PRECIP       ET          HEAD       DEPTH      WIDTH   CONDCTNC.   GRADIENT

   1    1    1     1     1    7.7000E+01  4.2703E-01   7.6573E+01  0.000E+00  0.000E+00  0.000E+00  1.09476E+03  1.708E+00  2.016E+01  9.070E-02  1.569E+00
   1    2    2     1     2    7.6573E+01  6.6237E-01   7.5911E+01  0.000E+00  0.000E+00  0.000E+00  1.08976E+03  1.706E+00  2.011E+01  1.408E-01  1.569E+00
   1    3    3     1     3    7.5911E+01  5.6590E-01   7.5345E+01  0.000E+00  0.000E+00  0.000E+00  1.08412E+03  1.703E+00  2.006E+01  1.203E-01  1.568E+00
   1    3    4     1     4    7.5345E+01  5.2193E-01   7.4823E+01  0.000E+00  0.000E+00  0.000E+00  1.07911E+03  1.700E+00  2.001E+01  1.110E-01  1.567E+00
   1    4    5     2     1    7.2823E+01  4.1259E-01   7.2410E+01  0.000E+00  0.000E+00  0.000E+00  1.07422E+03  2.290E+00  1.200E+01  7.800E-02  1.763E+00
   1    5    6     2     2    7.2410E+01  3.1696E-01   7.2093E+01  0.000E+00  0.000E+00  0.000E+00  1.06879E+03  2.283E+00  1.200E+01  6.000E-02  1.761E+00
   1    6    6     2     3    7.2093E+01  3.1660E-01   7.1777E+01  0.000E+00  0.000E+00  0.000E+00  1.06407E+03  2.277E+00  1.200E+01  6.000E-02  1.759E+00
   1    7    6     2     4    7.1777E+01  3.1624E-01   7.1460E+01  0.000E+00  0.000E+00  0.000E+00  1.05935E+03  2.271E+00  1.200E+01  6.000E-02  1.757E+00
   1    8    6     2     5    7.1460E+01  3.1588E-01   7.1144E+01  0.000E+00  0.000E+00  0.000E+00  1.05462E+03  2.265E+00  1.200E+01  6.000E-02  1.755E+00
   1    3    5     3     1    2.0000E+00  2.8252E-01   1.7175E+00  0.000E+00  0.000E+00  0.000E+00  1.07555E+03  1.909E+00  9.636E+00  7.227E-02  1.955E+00
   1    3    6     3     2    1.7175E+00  2.4905E-01   1.4684E+00  0.000E+00  0.000E+00  0.000E+00  1.07264E+03  1.727E+00  8.909E+00  6.682E-02  1.864E+00
   1    3    7     3     3    1.4684E+00  1.9718E-01   1.2712E+00  0.000E+00  0.000E+00  0.000E+00  1.06987E+03  1.555E+00  8.218E+00  5.547E-02  1.777E+00
   1    4    8     3     4    1.2712E+00  2.2567E-01   1.0456E+00  0.000E+00  0.000E+00  0.000E+00  1.06682E+03  1.364E+00  7.455E+00  6.709E-02  1.682E+00
   1    5    8     3     5    1.0456E+00  1.5790E-01   8.8768E-01  0.000E+00  0.000E+00  0.000E+00  1.06362E+03  1.164E+00  6.655E+00  4.991E-02  1.582E+00
   1    6    8     3     6    8.8768E-01  5.5980E-02   8.3170E-01  0.000E+00  0.000E+00  0.000E+00  1.06158E+03  1.036E+00  6.145E+00  1.844E-02  1.518E+00
   1    5   10     4     1    1.0000E+01  9.0919E-02   9.9091E+00  0.000E+00  0.000E+00  0.000E+00  1.07836E+03  6.368E-01  1.000E+01  2.500E-02  1.212E+00
   1    5    9     4     2    9.9091E+00  1.8158E-01   9.7275E+00  0.000E+00  0.000E+00  0.000E+00  1.07154E+03  6.315E-01  1.000E+01  5.000E-02  1.211E+00
   1    6    8     4     3    9.7275E+00  1.2689E-01   9.6006E+00  0.000E+00  0.000E+00  0.000E+00  1.06381E+03  6.256E-01  1.000E+01  3.500E-02  1.209E+00
   1    6    8     5     1    1.0432E+01  2.2686E-01   1.0205E+01  0.000E+00  0.000E+00  0.000E+00  1.05868E+03  6.790E-01  1.542E+01  6.166E-02  1.226E+00
   1    7    7     5     2    1.0205E+01  2.7894E-01   9.9265E+00  0.000E+00  0.000E+00  0.000E+00  1.05417E+03  6.732E-01  1.519E+01  7.594E-02  1.224E+00
   1    8    7     5     3    9.9265E+00  1.9221E-01   9.7343E+00  0.000E+00  0.000E+00  0.000E+00  1.04992E+03  6.676E-01  1.497E+01  5.241E-02  1.223E+00
   1    8    6     5     4    9.7343E+00  1.3577E-01   9.5985E+00  0.000E+00  0.000E+00  0.000E+00  1.04691E+03  6.637E-01  1.482E+01  3.706E-02  1.221E+00
   1    9    6     6     1    6.0743E+01  3.0461E-01   6.0438E+01  0.000E+00  0.000E+00  0.000E+00  1.04480E+03  2.077E+00  1.200E+01  6.000E-02  1.692E+00
   1   10    7     6     2    6.0438E+01  3.0424E-01   6.0134E+01  0.000E+00  0.000E+00  0.000E+00  1.04025E+03  2.071E+00  1.200E+01  6.000E-02  1.690E+00
   1   11    7     6     3    6.0134E+01  3.0386E-01   5.9830E+01  0.000E+00  0.000E+00  0.000E+00  1.03570E+03  2.064E+00  1.200E+01  6.000E-02  1.688E+00
   1   12    7     6     4    5.9830E+01  3.0348E-01   5.9527E+01  0.000E+00  0.000E+00  0.000E+00  1.03115E+03  2.058E+00  1.200E+01  6.000E-02  1.686E+00
   1   13    7     6     5    5.9527E+01  2.0656E-02   5.9506E+01  0.000E+00  0.000E+00  0.000E+00  1.02796E+03  2.055E+00  1.200E+01  2.400E-02  2.869E-01
   1   14    9     7     1    1.5000E+02  1.3374E+00   1.4866E+02  0.000E+00  0.000E+00  0.000E+00  1.03987E+03  2.288E+00  5.529E+01  5.593E-01  7.970E-01
   1   13    8     7     2    1.4866E+02  1.8343E+00   1.4683E+02  0.000E+00  0.000E+00  0.000E+00  1.03478E+03  2.279E+00  5.526E+01  6.148E-01  9.945E-01
   1   13    7     7     3    1.4683E+02  1.4446E+00   1.4538E+02  0.000E+00  0.000E+00  0.000E+00  1.02969E+03  2.271E+00  5.522E+01  5.585E-01  8.622E-01
   1   13    6     8     1    2.0489E+02  1.0415E+00   2.0385E+02  0.000E+00  0.000E+00  0.000E+00  1.02504E+03  3.163E+00  4.587E+01  4.674E-01  7.427E-01
   1   13    5     8     2    2.0385E+02  2.3313E-01   2.0362E+02  0.000E+00  0.000E+00  0.000E+00  1.01878E+03  3.160E+00  4.581E+01  4.669E-01  1.665E-01
   1   13    4     8     3    2.0362E+02 -2.1706E+00   2.0579E+02  0.000E+00  0.000E+00  0.000E+00  1.01254E+03  3.165E+00  4.590E+01  4.677E+00 -1.547E-01
   1   13    3     8     4    2.0579E+02 -3.3753E+00   2.0916E+02  0.000E+00  0.000E+00  0.000E+00  1.00631E+03  3.181E+00  4.613E+01  4.701E+00 -2.394E-01
   1   13    2     8     5    2.0916E+02 -2.2309E+00   2.1139E+02  0.000E+00  0.000E+00  0.000E+00  1.00007E+03  3.197E+00  4.636E+01  4.724E+00 -1.574E-01
   1   13    1     8     6    2.1139E+02 -1.7453E+00   2.1314E+02  0.000E+00  0.000E+00  0.000E+00  9.95084E+02  3.209E+00  4.652E+01  2.845E+00 -2.045E-01
   1    6    8     9     1    2.0000E+01  0.0000E+00   2.0000E+01  0.000E+00  0.000E+00  0.000E+00  1.07932E+03  8.168E-01  4.000E+00  0.000E+00  1.272E+00





UNSATURATED ZONE PACKAGE VOLUMETRIC BUDGET FOR  TIME STEP    30 STRESS PERIOD    4
  ------------------------------------------------------------------------------



     CUMULATIVE VOLUMES      L**3       RATES FOR THIS TIME STEP      L**3/T
     ------------------                 ------------------------

           IN:                                      IN:
           ---                                      ---
        INFILTRATION =       73224.0000          INFILTRATION =       0.0000E+00

          OUT:                                     OUT:
          ----                                     ----
              UZF ET =       0.0000E+00                UZF ET =       0.0000E+00
        UZF RECHARGE =      796582.4023          UZF RECHARGE =           0.2268

            IN - OUT =     -723358.4023              IN - OUT =          -0.2268

          STORAGE:                                 STORAGE:
          --------                                 --------
      STORAGE CHANGE =     -723263.8653        STORAGE CHANGE =          -0.2268

 PERCENT DISCREPANCY IS DIFFERENCE BETWEEN IN-OUT MINUS CHANGE IN STORAGE
 DIVIDED BY THE AVERAGE OF IN AND OUT TIMES 100

 PERCENT DISCREPANCY =          -0.00     PERCENT DISCREPANCY =          -0.01






1
  VOLUMETRIC BUDGET FOR ENTIRE MODEL AT END OF TIME STEP   30, STRESS PERIOD   4
  ------------------------------------------------------------------------------

     CUMULATIVE VOLUMES      L**3       RATES FOR THIS TIME STEP      L**3/T
     ------------------                 ------------------------

           IN:                                      IN:
           ---                                      ---
    AWU WELLS            =           0.0000      AWU WELLS            =           0.0000
    DIVERSION SEGMENTS   =           0.0000      DIVERSION SEGMENTS   =           0.0000
    GW IRRIGATION        =           0.0000      GW IRRIGATION        =           0.0000
    SW IRRIGATION        =           0.0000      SW IRRIGATION        =           0.0000
    EFFICIENCY FACTOR GW =           0.0000      EFFICIENCY FACTOR GW =           0.0000
    EFFICIENCY FACTOR SW =           0.0000      EFFICIENCY FACTOR SW =           0.0000

                TOTAL IN =           0.0000                  TOTAL IN =           0.0000

          OUT:                                     OUT:
          ----                                     ----
    AWU WELLS            =           0.0000      AWU WELLS            =           0.0000
    DIVERSION SEGMENTS   =           0.0000      DIVERSION SEGMENTS   =           0.0000
    GW IRRIGATION        =           0.0000      GW IRRIGATION        =           0.0000
    SW IRRIGATION        =           0.0000      SW IRRIGATION        =           0.0000
    EFFICIENCY FACTOR GW =           0.0000      EFFICIENCY FACTOR GW =           0.0000
    EFFICIENCY FACTOR SW =           0.0000      EFFICIENCY FACTOR SW =           0.0000

               TOTAL OUT =           0.0000                 TOTAL OUT =           0.0000

                IN - OUT =           0.0000                  IN - OUT =           0.0000

     PERCENT DISCREPANCY =           0.00         PERCENT DISCREPANCY =           0.00



1
  VOLUMETRIC BUDGET FOR ENTIRE MODEL AT END OF TIME STEP   30, STRESS PERIOD   4
  ------------------------------------------------------------------------------

     CUMULATIVE VOLUMES      L**3       RATES FOR THIS TIME STEP      L**3/T
     ------------------                 ------------------------

           IN:                                      IN:
           ---                                      ---
             STORAGE     =     4790527.5000               STORAGE     =           0.4422
       CONSTANT HEAD     =           0.0000         CONSTANT HEAD     =           0.0000
     HEAD DEP BOUNDS     =     2278010.0000       HEAD DEP BOUNDS     =           0.2859
      STREAM LEAKAGE     =    91817168.0000        STREAM LEAKAGE     =          13.3846
        UZF RECHARGE     =      796582.4375          UZF RECHARGE     =           0.2268
               GW ET     =           0.0000                 GW ET     =           0.0000
     SURFACE LEAKAGE     =           0.0000       SURFACE LEAKAGE     =           0.0000
    AWU WELLS            =           0.0000      AWU WELLS            =           0.0000

                TOTAL IN =    99682288.0000                  TOTAL IN =          14.3396

          OUT:                                     OUT:
          ----                                     ----
             STORAGE     =    14403130.0000               STORAGE     =           4.5144
       CONSTANT HEAD     =           0.0000         CONSTANT HEAD     =           0.0000
     HEAD DEP BOUNDS     =     2298783.5000       HEAD DEP BOUNDS     =           0.2925
      STREAM LEAKAGE     =    82821328.0000        STREAM LEAKAGE     =           9.5221
        UZF RECHARGE     =           0.0000          UZF RECHARGE     =           0.0000
               GW ET     =      165788.5625                 GW ET     =       1.0484E-02
     SURFACE LEAKAGE     =           0.0000       SURFACE LEAKAGE     =           0.0000
    AWU WELLS            =           0.0000      AWU WELLS            =           0.0000

               TOTAL OUT =    99689032.0000                 TOTAL OUT =          14.3395

                IN - OUT =       -6744.0000                  IN - OUT =       9.5367E-05

     PERCENT DISCREPANCY =          -0.01         PERCENT DISCREPANCY =           0.00






         TIME SUMMARY AT END OF TIME STEP   30 IN STRESS PERIOD    4
                    SECONDS     MINUTES      HOURS       DAYS        YEARS
                    -----------------------------------------------------------
   TIME STEP LENGTH  87600.      1460.0      24.333      1.0139     2.77588E-03
 STRESS PERIOD TIME 2.62800E+06  43800.      730.00      30.417     8.32763E-02
         TOTAL TIME 7.97040E+06 1.32840E+05  2214.0      92.250     0.25257    
1
1
                            STRESS PERIOD NO.    5, LENGTH =   2628000.    
                            -----------------------------------------------

                              NUMBER OF TIME STEPS =    30

                               MULTIPLIER FOR DELT =     1.000

                            INITIAL TIME STEP SIZE =   87600.00    

 REUSING NON-PARAMETER GHB CELLS FROM LAST STRESS PERIOD

      2 GHB CELLS

 REUSING STREAM SEGMENT DATA FROM LAST STRESS PERIOD



            AREAL INFILTRATION RATE
 READING ON UNIT   19 WITH FORMAT: (10F4.0)            

            1           2           3           4           5           6           7           8           9          10
 ........................................................................................................................
   1    0.000       0.000       0.000       0.000       0.000       0.000       0.000       0.000       0.000       0.000    
   2    0.000       0.000       0.000       0.000       0.000       0.000       0.000       0.000       0.000       0.000    
   3    0.000       0.000       0.000       0.000       0.000       0.000       0.000       0.000       0.000       0.000    
   4    0.000       0.000       0.000       0.000       0.000       0.000       0.000       0.000       0.000       0.000    
   5    0.000       0.000       0.000       0.000       0.000       0.000       0.000       0.000       0.000       0.000    
   6    0.000       0.000       0.000       0.000       0.000       0.000       0.000       0.000       0.000       0.000    
   7    0.000       0.000       0.000       0.000       0.000       0.000       0.000       0.000       0.000       0.000    
   8    0.000       0.000       0.000       0.000       0.000       0.000       0.000       0.000       0.000       0.000    
   9    0.000       0.000       0.000       0.000       0.000       0.000       0.000       0.000       0.000       0.000    
  10    0.000       0.000       0.000       0.000       0.000       0.000       0.000       0.000       0.000       0.000    
  11    0.000       0.000       0.000       0.000       0.000       0.000       0.000       0.000       0.000       0.000    
  12    0.000       0.000       0.000       0.000       0.000       0.000       0.000       0.000       0.000       0.000    
  13    0.000       0.000       0.000       0.000       0.000       0.000       0.000       0.000       0.000       0.000    
  14    0.000       0.000       0.000       0.000       0.000       0.000       0.000       0.000       0.000       0.000    
  15    0.000       0.000       0.000       0.000       0.000       0.000       0.000       0.000       0.000       0.000    

                  ET RATE =  5.000000E-09

 USING ET EXTINCTION DEPTH FROM PREVIOUS STRESS PERIOD. CURRENT PERIOD IS:       5

 USING EXTINCTION WATER CONTENT FROM PREVIOUS STRESS PERIOD. CURRENT PERIOD IS:       5

 PROCESSING AWU STRESS PERIOD DATA

 READING AWU STRESS PERIOD DATA

 READING IRRIGATION STREAM

 READING IRRIGATION WELL

 READING SUPPLEMENTAL WEL

 END PROCESSING AWU STRESS PERIOD DATA OPTIONS
 
 SOLVING FOR HEAD 
                                                   Max.-Head-Change                         Max.-Flux-Residual
  Residual-Control   Outer-Iter.   Inner-Iter.     Column Row Layer    Maximum-Head-Change  Column Row Layer    Maximum-Flux-Residual          L2-NORM 
          0                 1           2             2    2     1       0.7900384606E-02       2    2    1         0.4128263243E+00      0.8468430140E+00
          0                 2           2             4   13     1       0.7705256810E-02       4   13    1         0.4453513960E+00      0.8693580863E+00
          0                 3           2             4    7     1      -0.2366386555E+00       5    6    1        -0.1248646329E+02      0.3059483493E+02
          0                 4           2             4    8     1       0.6235326190E-02       4    8    1         0.3364158919E+00      0.5750474372E+00
          0                 5           2             4    8     1      -0.5560843443E-03       4    8    1        -0.3034029322E-01      0.4803988874E-01
          0                 6           1             4    8     1       0.4413816777E-04       4    8    1         0.2435229535E-02      0.3572811405E-02

    ------------------------------------------------
       NWT REQUIRED            6 OUTER ITERATIONS 
       AND A TOTAL OF         11 INNER ITERATIONS.
    ------------------------------------------------

 OUTPUT CONTROL FOR STRESS PERIOD    5   TIME STEP    1
    PRINT BUDGET
    SAVE BUDGET
 UBDSV1 SAVING "         STORAGE" ON UNIT 102 AT TIME STEP     1, STRESS PERIOD   5
 UBDSV2 SAVING "   CONSTANT HEAD" ON UNIT 102 AT TIME STEP     1, STRESS PERIOD   5
 UBDSV1 SAVING "FLOW RIGHT FACE " ON UNIT 102 AT TIME STEP     1, STRESS PERIOD   5
 UBDSV1 SAVING "FLOW FRONT FACE " ON UNIT 102 AT TIME STEP     1, STRESS PERIOD   5

  HEAD DEP BOUNDS   PERIOD    5   STEP     1
 BOUNDARY      1   LAYER   1   ROW    13   COL     1   RATE   -0.292573    
 BOUNDARY      2   LAYER   1   ROW    14   COL     9   RATE    0.285865    



 STREAM LISTING     PERIOD      5   STEP        1

 LAYER ROW COL. STREAM  RCH.  FLOW INTO     FLOW TO   FLOW OUT OF   OVRLND.     DIRECT     STREAM       STREAM     STREAM     STREAM   STREAMBED  STREAMBED
                SEG.NO.  NO.  STRM. RCH.    AQUIFER    STRM. RCH.    RUNOFF     PRECIP       ET          HEAD       DEPTH      WIDTH   CONDCTNC.   GRADIENT

   1    1    1     1     1    7.7000E+01  4.2703E-01   7.6573E+01  0.000E+00  0.000E+00  0.000E+00  1.09476E+03  1.708E+00  2.016E+01  9.070E-02  1.569E+00
   1    2    2     1     2    7.6573E+01  6.6237E-01   7.5911E+01  0.000E+00  0.000E+00  0.000E+00  1.08976E+03  1.706E+00  2.011E+01  1.408E-01  1.569E+00
   1    3    3     1     3    7.5911E+01  5.6590E-01   7.5345E+01  0.000E+00  0.000E+00  0.000E+00  1.08412E+03  1.703E+00  2.006E+01  1.203E-01  1.568E+00
   1    3    4     1     4    7.5345E+01  5.2193E-01   7.4823E+01  0.000E+00  0.000E+00  0.000E+00  1.07911E+03  1.700E+00  2.001E+01  1.110E-01  1.567E+00
   1    4    5     2     1    7.2823E+01  4.1259E-01   7.2410E+01  0.000E+00  0.000E+00  0.000E+00  1.07422E+03  2.290E+00  1.200E+01  7.800E-02  1.763E+00
   1    5    6     2     2    7.2410E+01  3.1696E-01   7.2093E+01  0.000E+00  0.000E+00  0.000E+00  1.06879E+03  2.283E+00  1.200E+01  6.000E-02  1.761E+00
   1    6    6     2     3    7.2093E+01  3.1660E-01   7.1777E+01  0.000E+00  0.000E+00  0.000E+00  1.06407E+03  2.277E+00  1.200E+01  6.000E-02  1.759E+00
   1    7    6     2     4    7.1777E+01  3.1624E-01   7.1460E+01  0.000E+00  0.000E+00  0.000E+00  1.05935E+03  2.271E+00  1.200E+01  6.000E-02  1.757E+00
   1    8    6     2     5    7.1460E+01  3.1588E-01   7.1144E+01  0.000E+00  0.000E+00  0.000E+00  1.05462E+03  2.265E+00  1.200E+01  6.000E-02  1.755E+00
   1    3    5     3     1    2.0000E+00  2.8252E-01   1.7175E+00  0.000E+00  0.000E+00  0.000E+00  1.07555E+03  1.909E+00  9.636E+00  7.227E-02  1.955E+00
   1    3    6     3     2    1.7175E+00  2.4905E-01   1.4684E+00  0.000E+00  0.000E+00  0.000E+00  1.07264E+03  1.727E+00  8.909E+00  6.682E-02  1.864E+00
   1    3    7     3     3    1.4684E+00  1.9718E-01   1.2712E+00  0.000E+00  0.000E+00  0.000E+00  1.06987E+03  1.555E+00  8.218E+00  5.547E-02  1.777E+00
   1    4    8     3     4    1.2712E+00  2.2567E-01   1.0456E+00  0.000E+00  0.000E+00  0.000E+00  1.06682E+03  1.364E+00  7.455E+00  6.709E-02  1.682E+00
   1    5    8     3     5    1.0456E+00  1.5790E-01   8.8768E-01  0.000E+00  0.000E+00  0.000E+00  1.06362E+03  1.164E+00  6.655E+00  4.991E-02  1.582E+00
   1    6    8     3     6    8.8768E-01  5.5980E-02   8.3170E-01  0.000E+00  0.000E+00  0.000E+00  1.06158E+03  1.036E+00  6.145E+00  1.844E-02  1.518E+00
   1    5   10     4     1    1.0000E+01  9.0919E-02   9.9091E+00  0.000E+00  0.000E+00  0.000E+00  1.07836E+03  6.368E-01  1.000E+01  2.500E-02  1.212E+00
   1    5    9     4     2    9.9091E+00  1.8158E-01   9.7275E+00  0.000E+00  0.000E+00  0.000E+00  1.07154E+03  6.315E-01  1.000E+01  5.000E-02  1.211E+00
   1    6    8     4     3    9.7275E+00  1.2689E-01   9.6006E+00  0.000E+00  0.000E+00  0.000E+00  1.06381E+03  6.256E-01  1.000E+01  3.500E-02  1.209E+00
   1    6    8     5     1    1.0432E+01  2.2686E-01   1.0205E+01  0.000E+00  0.000E+00  0.000E+00  1.05868E+03  6.790E-01  1.542E+01  6.166E-02  1.226E+00
   1    7    7     5     2    1.0205E+01  2.7894E-01   9.9265E+00  0.000E+00  0.000E+00  0.000E+00  1.05417E+03  6.732E-01  1.519E+01  7.594E-02  1.224E+00
   1    8    7     5     3    9.9265E+00  1.9221E-01   9.7343E+00  0.000E+00  0.000E+00  0.000E+00  1.04992E+03  6.676E-01  1.497E+01  5.241E-02  1.223E+00
   1    8    6     5     4    9.7343E+00  1.3577E-01   9.5985E+00  0.000E+00  0.000E+00  0.000E+00  1.04691E+03  6.637E-01  1.482E+01  3.706E-02  1.221E+00
   1    9    6     6     1    6.0743E+01  3.0461E-01   6.0438E+01  0.000E+00  0.000E+00  0.000E+00  1.04480E+03  2.077E+00  1.200E+01  6.000E-02  1.692E+00
   1   10    7     6     2    6.0438E+01  3.0424E-01   6.0134E+01  0.000E+00  0.000E+00  0.000E+00  1.04025E+03  2.071E+00  1.200E+01  6.000E-02  1.690E+00
   1   11    7     6     3    6.0134E+01  3.0386E-01   5.9830E+01  0.000E+00  0.000E+00  0.000E+00  1.03570E+03  2.064E+00  1.200E+01  6.000E-02  1.688E+00
   1   12    7     6     4    5.9830E+01  3.0348E-01   5.9527E+01  0.000E+00  0.000E+00  0.000E+00  1.03115E+03  2.058E+00  1.200E+01  6.000E-02  1.686E+00
   1   13    7     6     5    5.9527E+01  2.0638E-02   5.9506E+01  0.000E+00  0.000E+00  0.000E+00  1.02796E+03  2.055E+00  1.200E+01  2.400E-02  2.866E-01
   1   14    9     7     1    1.5000E+02  1.3374E+00   1.4866E+02  0.000E+00  0.000E+00  0.000E+00  1.03987E+03  2.288E+00  5.529E+01  5.593E-01  7.971E-01
   1   13    8     7     2    1.4866E+02  1.8341E+00   1.4683E+02  0.000E+00  0.000E+00  0.000E+00  1.03478E+03  2.279E+00  5.526E+01  6.148E-01  9.945E-01
   1   13    7     7     3    1.4683E+02  1.4442E+00   1.4538E+02  0.000E+00  0.000E+00  0.000E+00  1.02969E+03  2.271E+00  5.522E+01  5.585E-01  8.620E-01
   1   13    6     8     1    2.0489E+02  1.0406E+00   2.0385E+02  0.000E+00  0.000E+00  0.000E+00  1.02504E+03  3.163E+00  4.587E+01  4.674E-01  7.421E-01
   1   13    5     8     2    2.0385E+02  2.3286E-01   2.0362E+02  0.000E+00  0.000E+00  0.000E+00  1.01878E+03  3.160E+00  4.581E+01  4.669E-01  1.663E-01
   1   13    4     8     3    2.0362E+02 -2.1873E+00   2.0580E+02  0.000E+00  0.000E+00  0.000E+00  1.01254E+03  3.165E+00  4.590E+01  4.677E+00 -1.559E-01
   1   13    3     8     4    2.0580E+02 -3.3895E+00   2.0919E+02  0.000E+00  0.000E+00  0.000E+00  1.00631E+03  3.181E+00  4.613E+01  4.701E+00 -2.404E-01
   1   13    2     8     5    2.0919E+02 -2.2516E+00   2.1145E+02  0.000E+00  0.000E+00  0.000E+00  1.00007E+03  3.197E+00  4.636E+01  4.725E+00 -1.589E-01
   1   13    1     8     6    2.1145E+02 -1.7508E+00   2.1320E+02  0.000E+00  0.000E+00  0.000E+00  9.95084E+02  3.209E+00  4.653E+01  2.845E+00 -2.051E-01
   1    6    8     9     1    2.0000E+01  0.0000E+00   2.0000E+01  0.000E+00  0.000E+00  0.000E+00  1.07932E+03  8.168E-01  4.000E+00  0.000E+00  1.272E+00



 UBDSV3 SAVING "           GW ET" ON UNIT  61 AT TIME STEP     1, STRESS PERIOD   5
 UBDSV3 SAVING "    UZF RECHARGE" ON UNIT  61 AT TIME STEP     1, STRESS PERIOD   5
 UBDSV3 SAVING " SURFACE LEAKAGE" ON UNIT  61 AT TIME STEP     1, STRESS PERIOD   5
 UBDSV3 SAVING "       HORT+DUNN" ON UNIT  61 AT TIME STEP     1, STRESS PERIOD   5
 UBDSV3 SAVING "  STORAGE CHANGE" ON UNIT  61 AT TIME STEP     1, STRESS PERIOD   5


UNSATURATED ZONE PACKAGE VOLUMETRIC BUDGET FOR  TIME STEP     1 STRESS PERIOD    5
  ------------------------------------------------------------------------------



     CUMULATIVE VOLUMES      L**3       RATES FOR THIS TIME STEP      L**3/T
     ------------------                 ------------------------

           IN:                                      IN:
           ---                                      ---
        INFILTRATION =     8959624.5000          INFILTRATION =         101.4429

          OUT:                                     OUT:
          ----                                     ----
              UZF ET =        8264.4661                UZF ET =           0.0943
        UZF RECHARGE =      812889.8915          UZF RECHARGE =           0.1862

            IN - OUT =     8138470.1424              IN - OUT =         101.1624

          STORAGE:                                 STORAGE:
          --------                                 --------
      STORAGE CHANGE =     8138565.3537        STORAGE CHANGE =         101.1624

 PERCENT DISCREPANCY IS DIFFERENCE BETWEEN IN-OUT MINUS CHANGE IN STORAGE
 DIVIDED BY THE AVERAGE OF IN AND OUT TIMES 100

 PERCENT DISCREPANCY =          -0.00     PERCENT DISCREPANCY =          -0.00






 

 AWU WELLS                PERIOD    5   STEP   1
 AWU WELL      1   LAYER   1   ROW     6   COL     4   RATE    -13.5738    
 AWU WELL      2   LAYER   1   ROW     6   COL     5   RATE    -13.5738    
 AWU WELL      3   LAYER   1   ROW     7   COL     4   RATE    -13.5738    
 AWU WELL      4   LAYER   1   ROW     7   COL     5   RATE    -13.5738    
 AWU WELL      5   LAYER   1   ROW     8   COL     4   RATE    -13.5738    
 AWU WELL      6   LAYER   1   ROW     8   COL     5   RATE    -13.5738    
 
 

 DIVERSION SEGMENTS       PERIOD    5   STEP   1
 SEGMENT      9   RATE     20.0000    
 
 

 SW IRRIGATION            PERIOD    5   STEP   1
 SEGMENT      9   ROW     6   COL     4   RATE     3.33340    
 SEGMENT      9   ROW     6   COL     5   RATE     3.33340    
 SEGMENT      9   ROW     7   COL     4   RATE     3.33340    
 SEGMENT      9   ROW     7   COL     5   RATE     3.33340    
 SEGMENT      9   ROW     8   COL     4   RATE     3.33340    
 SEGMENT      9   ROW     8   COL     5   RATE     3.33340    
 
 

 GW IRRIGATION            PERIOD    5   STEP   1
 AWU WELL      1   ROW     6   COL     4   RATE     13.5738    
 AWU WELL      2   ROW     6   COL     5   RATE     13.5738    
 AWU WELL      3   ROW     7   COL     4   RATE     13.5738    
 AWU WELL      4   ROW     7   COL     5   RATE     13.5738    
 AWU WELL      5   ROW     8   COL     4   RATE     13.5738    
 AWU WELL      6   ROW     8   COL     5   RATE     13.5738    
 
1
  VOLUMETRIC BUDGET FOR ENTIRE MODEL AT END OF TIME STEP    1, STRESS PERIOD   5
  ------------------------------------------------------------------------------

     CUMULATIVE VOLUMES      L**3       RATES FOR THIS TIME STEP      L**3/T
     ------------------                 ------------------------

           IN:                                      IN:
           ---                                      ---
    AWU WELLS            =     7134365.5000      AWU WELLS            =          81.4425
    DIVERSION SEGMENTS   =     1752034.8750      DIVERSION SEGMENTS   =          20.0004
    GW IRRIGATION        =           0.0000      GW IRRIGATION        =           0.0000
    SW IRRIGATION        =           0.0000      SW IRRIGATION        =           0.0000
    EFFICIENCY FACTOR GW =           0.0000      EFFICIENCY FACTOR GW =           0.0000
    EFFICIENCY FACTOR SW =           0.0000      EFFICIENCY FACTOR SW =           0.0000

                TOTAL IN =     8886400.0000                  TOTAL IN =         101.4429

          OUT:                                     OUT:
          ----                                     ----
    AWU WELLS            =           0.0000      AWU WELLS            =           0.0000
    DIVERSION SEGMENTS   =           0.0000      DIVERSION SEGMENTS   =           0.0000
    GW IRRIGATION        =     7134365.5000      GW IRRIGATION        =          81.4425
    SW IRRIGATION        =     1752034.8750      SW IRRIGATION        =          20.0004
    EFFICIENCY FACTOR GW =           0.0000      EFFICIENCY FACTOR GW =           0.0000
    EFFICIENCY FACTOR SW =           0.0000      EFFICIENCY FACTOR SW =           0.0000

               TOTAL OUT =     8886400.0000                 TOTAL OUT =         101.4429

                IN - OUT =           0.0000                  IN - OUT =           0.0000

     PERCENT DISCREPANCY =           0.00         PERCENT DISCREPANCY =           0.00



1
  VOLUMETRIC BUDGET FOR ENTIRE MODEL AT END OF TIME STEP    1, STRESS PERIOD   5
  ------------------------------------------------------------------------------

     CUMULATIVE VOLUMES      L**3       RATES FOR THIS TIME STEP      L**3/T
     ------------------                 ------------------------

           IN:                                      IN:
           ---                                      ---
             STORAGE     =    11934223.0000               STORAGE     =          81.5490
       CONSTANT HEAD     =           0.0000         CONSTANT HEAD     =           0.0000
     HEAD DEP BOUNDS     =     2303051.7500       HEAD DEP BOUNDS     =           0.2859
      STREAM LEAKAGE     =    92989504.0000        STREAM LEAKAGE     =          13.3829
        UZF RECHARGE     =      812889.9375          UZF RECHARGE     =           0.1862
               GW ET     =           0.0000                 GW ET     =           0.0000
     SURFACE LEAKAGE     =           0.0000       SURFACE LEAKAGE     =           0.0000
    AWU WELLS            =           0.0000      AWU WELLS            =           0.0000

                TOTAL IN =   108039664.0000                  TOTAL IN =          95.4039

          OUT:                                     OUT:
          ----                                     ----
             STORAGE     =    14715466.0000               STORAGE     =           3.5655
       CONSTANT HEAD     =           0.0000         CONSTANT HEAD     =           0.0000
     HEAD DEP BOUNDS     =     2324413.0000       HEAD DEP BOUNDS     =           0.2926
      STREAM LEAKAGE     =    83660472.0000        STREAM LEAKAGE     =           9.5792
        UZF RECHARGE     =           0.0000          UZF RECHARGE     =           0.0000
               GW ET     =      211746.3281                 GW ET     =           0.5246
     SURFACE LEAKAGE     =           0.0000       SURFACE LEAKAGE     =           0.0000
    AWU WELLS            =     7134365.5000      AWU WELLS            =          81.4425

               TOTAL OUT =   108046464.0000                 TOTAL OUT =          95.4044

                IN - OUT =       -6800.0000                  IN - OUT =      -5.2643E-04

     PERCENT DISCREPANCY =          -0.01         PERCENT DISCREPANCY =          -0.00






         TIME SUMMARY AT END OF TIME STEP    1 IN STRESS PERIOD    5
                    SECONDS     MINUTES      HOURS       DAYS        YEARS
                    -----------------------------------------------------------
   TIME STEP LENGTH  87600.      1460.0      24.333      1.0139     2.77588E-03
 STRESS PERIOD TIME  87600.      1460.0      24.333      1.0139     2.77588E-03
         TOTAL TIME 8.05800E+06 1.34300E+05  2238.3      93.264     0.25534    
1
 
 SOLVING FOR HEAD 
                                                   Max.-Head-Change                         Max.-Flux-Residual
  Residual-Control   Outer-Iter.   Inner-Iter.     Column Row Layer    Maximum-Head-Change  Column Row Layer    Maximum-Flux-Residual          L2-NORM 
          0                 1           2             2    2     1       0.7848256032E-02       2    2    1         0.4100829864E+00      0.1157727078E+01
          0                 2           2             4   13     1       0.6828669538E-02       4   13    1         0.3945865975E+00      0.6918780357E+00
          0                 3           2             4   13     1      -0.1452782902E-02       4   13    1        -0.8469876817E-01      0.1457457240E+00
          0                 4           1             4   13     1       0.5755607961E-04       4   13    1         0.3389922472E-02      0.5452980025E-02

    ------------------------------------------------
       NWT REQUIRED            4 OUTER ITERATIONS 
       AND A TOTAL OF          7 INNER ITERATIONS.
    ------------------------------------------------

 OUTPUT CONTROL FOR STRESS PERIOD    5   TIME STEP    2
    PRINT BUDGET
    SAVE BUDGET
 UBDSV1 SAVING "         STORAGE" ON UNIT 102 AT TIME STEP     2, STRESS PERIOD   5
 UBDSV2 SAVING "   CONSTANT HEAD" ON UNIT 102 AT TIME STEP     2, STRESS PERIOD   5
 UBDSV1 SAVING "FLOW RIGHT FACE " ON UNIT 102 AT TIME STEP     2, STRESS PERIOD   5
 UBDSV1 SAVING "FLOW FRONT FACE " ON UNIT 102 AT TIME STEP     2, STRESS PERIOD   5

  HEAD DEP BOUNDS   PERIOD    5   STEP     2
 BOUNDARY      1   LAYER   1   ROW    13   COL     1   RATE   -0.292774    
 BOUNDARY      2   LAYER   1   ROW    14   COL     9   RATE    0.285866    



 STREAM LISTING     PERIOD      5   STEP        2

 LAYER ROW COL. STREAM  RCH.  FLOW INTO     FLOW TO   FLOW OUT OF   OVRLND.     DIRECT     STREAM       STREAM     STREAM     STREAM   STREAMBED  STREAMBED
                SEG.NO.  NO.  STRM. RCH.    AQUIFER    STRM. RCH.    RUNOFF     PRECIP       ET          HEAD       DEPTH      WIDTH   CONDCTNC.   GRADIENT

   1    1    1     1     1    7.7000E+01  4.2703E-01   7.6573E+01  0.000E+00  0.000E+00  0.000E+00  1.09476E+03  1.708E+00  2.016E+01  9.070E-02  1.569E+00
   1    2    2     1     2    7.6573E+01  6.6237E-01   7.5911E+01  0.000E+00  0.000E+00  0.000E+00  1.08976E+03  1.706E+00  2.011E+01  1.408E-01  1.569E+00
   1    3    3     1     3    7.5911E+01  5.6590E-01   7.5345E+01  0.000E+00  0.000E+00  0.000E+00  1.08412E+03  1.703E+00  2.006E+01  1.203E-01  1.568E+00
   1    3    4     1     4    7.5345E+01  5.2193E-01   7.4823E+01  0.000E+00  0.000E+00  0.000E+00  1.07911E+03  1.700E+00  2.001E+01  1.110E-01  1.567E+00
   1    4    5     2     1    7.2823E+01  4.1259E-01   7.2410E+01  0.000E+00  0.000E+00  0.000E+00  1.07422E+03  2.290E+00  1.200E+01  7.800E-02  1.763E+00
   1    5    6     2     2    7.2410E+01  3.1696E-01   7.2093E+01  0.000E+00  0.000E+00  0.000E+00  1.06879E+03  2.283E+00  1.200E+01  6.000E-02  1.761E+00
   1    6    6     2     3    7.2093E+01  3.1660E-01   7.1777E+01  0.000E+00  0.000E+00  0.000E+00  1.06407E+03  2.277E+00  1.200E+01  6.000E-02  1.759E+00
   1    7    6     2     4    7.1777E+01  3.1624E-01   7.1460E+01  0.000E+00  0.000E+00  0.000E+00  1.05935E+03  2.271E+00  1.200E+01  6.000E-02  1.757E+00
   1    8    6     2     5    7.1460E+01  3.1588E-01   7.1144E+01  0.000E+00  0.000E+00  0.000E+00  1.05462E+03  2.265E+00  1.200E+01  6.000E-02  1.755E+00
   1    3    5     3     1    2.0000E+00  2.8252E-01   1.7175E+00  0.000E+00  0.000E+00  0.000E+00  1.07555E+03  1.909E+00  9.636E+00  7.227E-02  1.955E+00
   1    3    6     3     2    1.7175E+00  2.4905E-01   1.4684E+00  0.000E+00  0.000E+00  0.000E+00  1.07264E+03  1.727E+00  8.909E+00  6.682E-02  1.864E+00
   1    3    7     3     3    1.4684E+00  1.9718E-01   1.2712E+00  0.000E+00  0.000E+00  0.000E+00  1.06987E+03  1.555E+00  8.218E+00  5.547E-02  1.777E+00
   1    4    8     3     4    1.2712E+00  2.2567E-01   1.0456E+00  0.000E+00  0.000E+00  0.000E+00  1.06682E+03  1.364E+00  7.455E+00  6.709E-02  1.682E+00
   1    5    8     3     5    1.0456E+00  1.5790E-01   8.8768E-01  0.000E+00  0.000E+00  0.000E+00  1.06362E+03  1.164E+00  6.655E+00  4.991E-02  1.582E+00
   1    6    8     3     6    8.8768E-01  5.5980E-02   8.3170E-01  0.000E+00  0.000E+00  0.000E+00  1.06158E+03  1.036E+00  6.145E+00  1.844E-02  1.518E+00
   1    5   10     4     1    1.0000E+01  9.0919E-02   9.9091E+00  0.000E+00  0.000E+00  0.000E+00  1.07836E+03  6.368E-01  1.000E+01  2.500E-02  1.212E+00
   1    5    9     4     2    9.9091E+00  1.8158E-01   9.7275E+00  0.000E+00  0.000E+00  0.000E+00  1.07154E+03  6.315E-01  1.000E+01  5.000E-02  1.211E+00
   1    6    8     4     3    9.7275E+00  1.2689E-01   9.6006E+00  0.000E+00  0.000E+00  0.000E+00  1.06381E+03  6.256E-01  1.000E+01  3.500E-02  1.209E+00
   1    6    8     5     1    1.0432E+01  2.2686E-01   1.0205E+01  0.000E+00  0.000E+00  0.000E+00  1.05868E+03  6.790E-01  1.542E+01  6.166E-02  1.226E+00
   1    7    7     5     2    1.0205E+01  2.7894E-01   9.9265E+00  0.000E+00  0.000E+00  0.000E+00  1.05417E+03  6.732E-01  1.519E+01  7.594E-02  1.224E+00
   1    8    7     5     3    9.9265E+00  1.9221E-01   9.7343E+00  0.000E+00  0.000E+00  0.000E+00  1.04992E+03  6.676E-01  1.497E+01  5.241E-02  1.223E+00
   1    8    6     5     4    9.7343E+00  1.3577E-01   9.5985E+00  0.000E+00  0.000E+00  0.000E+00  1.04691E+03  6.637E-01  1.482E+01  3.706E-02  1.221E+00
   1    9    6     6     1    7.5664E+01  3.2220E-01   7.5342E+01  0.000E+00  0.000E+00  0.000E+00  1.04510E+03  2.370E+00  1.200E+01  6.000E-02  1.790E+00
   1   10    7     6     2    7.5342E+01  3.2184E-01   7.5020E+01  0.000E+00  0.000E+00  0.000E+00  1.04055E+03  2.364E+00  1.200E+01  6.000E-02  1.788E+00
   1   11    7     6     3    7.5020E+01  3.2147E-01   7.4699E+01  0.000E+00  0.000E+00  0.000E+00  1.03599E+03  2.358E+00  1.200E+01  6.000E-02  1.786E+00
   1   12    7     6     4    7.4699E+01  3.2111E-01   7.4378E+01  0.000E+00  0.000E+00  0.000E+00  1.03144E+03  2.352E+00  1.200E+01  6.000E-02  1.784E+00
   1   13    7     6     5    7.4378E+01  2.7667E-02   7.4350E+01  0.000E+00  0.000E+00  0.000E+00  1.02826E+03  2.348E+00  1.200E+01  2.400E-02  3.843E-01
   1   14    9     7     1    1.5000E+02  1.3374E+00   1.4866E+02  0.000E+00  0.000E+00  0.000E+00  1.03987E+03  2.288E+00  5.529E+01  5.593E-01  7.971E-01
   1   13    8     7     2    1.4866E+02  1.8339E+00   1.4683E+02  0.000E+00  0.000E+00  0.000E+00  1.03478E+03  2.279E+00  5.526E+01  6.148E-01  9.944E-01
   1   13    7     7     3    1.4683E+02  1.4437E+00   1.4539E+02  0.000E+00  0.000E+00  0.000E+00  1.02969E+03  2.271E+00  5.522E+01  5.585E-01  8.617E-01
   1   13    6     8     1    2.1973E+02  1.1071E+00   2.1863E+02  0.000E+00  0.000E+00  0.000E+00  1.02512E+03  3.247E+00  4.709E+01  4.798E-01  7.691E-01
   1   13    5     8     2    2.1863E+02  2.7854E-01   2.1835E+02  0.000E+00  0.000E+00  0.000E+00  1.01887E+03  3.243E+00  4.703E+01  4.793E-01  1.937E-01
   1   13    4     8     3    2.1835E+02 -1.8899E+00   2.2024E+02  0.000E+00  0.000E+00  0.000E+00  1.01262E+03  3.248E+00  4.710E+01  4.799E+00 -1.313E-01
   1   13    3     8     4    2.2024E+02 -3.1254E+00   2.2336E+02  0.000E+00  0.000E+00  0.000E+00  1.00639E+03  3.262E+00  4.730E+01  4.820E+00 -2.162E-01
   1   13    2     8     5    2.2336E+02 -1.9740E+00   2.2534E+02  0.000E+00  0.000E+00  0.000E+00  1.00015E+03  3.276E+00  4.750E+01  4.840E+00 -1.359E-01
   1   13    1     8     6    2.2534E+02 -1.5846E+00   2.2692E+02  0.000E+00  0.000E+00  0.000E+00  9.95161E+02  3.286E+00  4.764E+01  2.913E+00 -1.813E-01
   1    6    8     9     1    5.0789E+00  0.0000E+00   5.0789E+00  0.000E+00  0.000E+00  0.000E+00  1.07886E+03  3.589E-01  4.000E+00  0.000E+00  1.120E+00



 UBDSV3 SAVING "           GW ET" ON UNIT  61 AT TIME STEP     2, STRESS PERIOD   5
 UBDSV3 SAVING "    UZF RECHARGE" ON UNIT  61 AT TIME STEP     2, STRESS PERIOD   5
 UBDSV3 SAVING " SURFACE LEAKAGE" ON UNIT  61 AT TIME STEP     2, STRESS PERIOD   5
 UBDSV3 SAVING "       HORT+DUNN" ON UNIT  61 AT TIME STEP     2, STRESS PERIOD   5
 UBDSV3 SAVING "  STORAGE CHANGE" ON UNIT  61 AT TIME STEP     2, STRESS PERIOD   5


UNSATURATED ZONE PACKAGE VOLUMETRIC BUDGET FOR  TIME STEP     2 STRESS PERIOD    5
  ------------------------------------------------------------------------------



     CUMULATIVE VOLUMES      L**3       RATES FOR THIS TIME STEP      L**3/T
     ------------------                 ------------------------

           IN:                                      IN:
           ---                                      ---
        INFILTRATION =     9404544.7500          INFILTRATION =           5.0790

          OUT:                                     OUT:
          ----                                     ----
              UZF ET =       21971.7429                UZF ET =           0.1565
        UZF RECHARGE =      834637.8222          UZF RECHARGE =           0.2483

            IN - OUT =     8547935.1849              IN - OUT =           4.6743

          STORAGE:                                 STORAGE:
          --------                                 --------
      STORAGE CHANGE =     8548618.8069        STORAGE CHANGE =           4.6810

 PERCENT DISCREPANCY IS DIFFERENCE BETWEEN IN-OUT MINUS CHANGE IN STORAGE
 DIVIDED BY THE AVERAGE OF IN AND OUT TIMES 100

 PERCENT DISCREPANCY =          -0.00     PERCENT DISCREPANCY =          -0.13






 

 AWU WELLS                PERIOD    5   STEP   2
 AWU WELL      1   LAYER   1   ROW     6   COL     4   RATE     0.00000    
 AWU WELL      2   LAYER   1   ROW     6   COL     5   RATE     0.00000    
 AWU WELL      3   LAYER   1   ROW     7   COL     4   RATE     0.00000    
 AWU WELL      4   LAYER   1   ROW     7   COL     5   RATE     0.00000    
 AWU WELL      5   LAYER   1   ROW     8   COL     4   RATE     0.00000    
 AWU WELL      6   LAYER   1   ROW     8   COL     5   RATE     0.00000    
 
 

 DIVERSION SEGMENTS       PERIOD    5   STEP   2
 SEGMENT      9   RATE     5.07890    
 
 

 SW IRRIGATION            PERIOD    5   STEP   2
 SEGMENT      9   ROW     6   COL     4   RATE    0.846500    
 SEGMENT      9   ROW     6   COL     5   RATE    0.846500    
 SEGMENT      9   ROW     7   COL     4   RATE    0.846500    
 SEGMENT      9   ROW     7   COL     5   RATE    0.846500    
 SEGMENT      9   ROW     8   COL     4   RATE    0.846500    
 SEGMENT      9   ROW     8   COL     5   RATE    0.846500    
 
 

 GW IRRIGATION            PERIOD    5   STEP   2
 AWU WELL      1   ROW     6   COL     4   RATE     0.00000    
 AWU WELL      2   ROW     6   COL     5   RATE     0.00000    
 AWU WELL      3   ROW     7   COL     4   RATE     0.00000    
 AWU WELL      4   ROW     7   COL     5   RATE     0.00000    
 AWU WELL      5   ROW     8   COL     4   RATE     0.00000    
 AWU WELL      6   ROW     8   COL     5   RATE     0.00000    
 
1
  VOLUMETRIC BUDGET FOR ENTIRE MODEL AT END OF TIME STEP    2, STRESS PERIOD   5
  ------------------------------------------------------------------------------

     CUMULATIVE VOLUMES      L**3       RATES FOR THIS TIME STEP      L**3/T
     ------------------                 ------------------------

           IN:                                      IN:
           ---                                      ---
    AWU WELLS            =     7134365.5000      AWU WELLS            =           0.0000
    DIVERSION SEGMENTS   =     2196955.2500      DIVERSION SEGMENTS   =           5.0790
    GW IRRIGATION        =           0.0000      GW IRRIGATION        =           0.0000
    SW IRRIGATION        =           0.0000      SW IRRIGATION        =           0.0000
    EFFICIENCY FACTOR GW =           0.0000      EFFICIENCY FACTOR GW =           0.0000
    EFFICIENCY FACTOR SW =           0.0000      EFFICIENCY FACTOR SW =           0.0000

                TOTAL IN =     9331321.0000                  TOTAL IN =           5.0790

          OUT:                                     OUT:
          ----                                     ----
    AWU WELLS            =           0.0000      AWU WELLS            =           0.0000
    DIVERSION SEGMENTS   =           0.0000      DIVERSION SEGMENTS   =           0.0000
    GW IRRIGATION        =     7134365.5000      GW IRRIGATION        =           0.0000
    SW IRRIGATION        =     2196955.2500      SW IRRIGATION        =           5.0790
    EFFICIENCY FACTOR GW =           0.0000      EFFICIENCY FACTOR GW =           0.0000
    EFFICIENCY FACTOR SW =           0.0000      EFFICIENCY FACTOR SW =           0.0000

               TOTAL OUT =     9331321.0000                 TOTAL OUT =           5.0790

                IN - OUT =           0.0000                  IN - OUT =           0.0000

     PERCENT DISCREPANCY =           0.00         PERCENT DISCREPANCY =           0.00



1
  VOLUMETRIC BUDGET FOR ENTIRE MODEL AT END OF TIME STEP    2, STRESS PERIOD   5
  ------------------------------------------------------------------------------

     CUMULATIVE VOLUMES      L**3       RATES FOR THIS TIME STEP      L**3/T
     ------------------                 ------------------------

           IN:                                      IN:
           ---                                      ---
             STORAGE     =    12074619.0000               STORAGE     =           1.6027
       CONSTANT HEAD     =           0.0000         CONSTANT HEAD     =           0.0000
     HEAD DEP BOUNDS     =     2328093.7500       HEAD DEP BOUNDS     =           0.2859
      STREAM LEAKAGE     =    94178400.0000        STREAM LEAKAGE     =          13.5719
        UZF RECHARGE     =      834637.8750          UZF RECHARGE     =           0.2483
               GW ET     =           0.0000                 GW ET     =           0.0000
     SURFACE LEAKAGE     =           0.0000       SURFACE LEAKAGE     =           0.0000
    AWU WELLS            =           0.0000      AWU WELLS            =           0.0000

                TOTAL IN =   109415752.0000                  TOTAL IN =          15.7087

          OUT:                                     OUT:
          ----                                     ----
             STORAGE     =    15268815.0000               STORAGE     =           6.3168
       CONSTANT HEAD     =           0.0000         CONSTANT HEAD     =           0.0000
     HEAD DEP BOUNDS     =     2350060.0000       HEAD DEP BOUNDS     =           0.2928
      STREAM LEAKAGE     =    84411552.0000        STREAM LEAKAGE     =           8.5739
        UZF RECHARGE     =           0.0000          UZF RECHARGE     =           0.0000
               GW ET     =      257785.6094                 GW ET     =           0.5256
     SURFACE LEAKAGE     =           0.0000       SURFACE LEAKAGE     =           0.0000
    AWU WELLS            =     7134365.5000      AWU WELLS            =           0.0000

               TOTAL OUT =   109422584.0000                 TOTAL OUT =          15.7090

                IN - OUT =       -6832.0000                  IN - OUT =      -3.4618E-04

     PERCENT DISCREPANCY =          -0.01         PERCENT DISCREPANCY =          -0.00






         TIME SUMMARY AT END OF TIME STEP    2 IN STRESS PERIOD    5
                    SECONDS     MINUTES      HOURS       DAYS        YEARS
                    -----------------------------------------------------------
   TIME STEP LENGTH  87600.      1460.0      24.333      1.0139     2.77588E-03
 STRESS PERIOD TIME 1.75200E+05  2920.0      48.667      2.0278     5.55175E-03
         TOTAL TIME 8.14560E+06 1.35760E+05  2262.7      94.278     0.25812    
1
 
 SOLVING FOR HEAD 
                                                   Max.-Head-Change                         Max.-Flux-Residual
  Residual-Control   Outer-Iter.   Inner-Iter.     Column Row Layer    Maximum-Head-Change  Column Row Layer    Maximum-Flux-Residual          L2-NORM 
          0                 1           2             2    2     1       0.7796897769E-02       2    2    1         0.4073802492E+00      0.1102404322E+01
          0                 2           2             4   13     1       0.6804370703E-02       4   13    1         0.3931923963E+00      0.6882447465E+00
          0                 3           2             4   13     1      -0.3339557893E-03       4   13    1        -0.1949169361E-01      0.3270650458E-01
          0                 4           1             4   13     1       0.1324618262E-04       4   13    1         0.7810586776E-03      0.1319890983E-02

    ------------------------------------------------
       NWT REQUIRED            4 OUTER ITERATIONS 
       AND A TOTAL OF          7 INNER ITERATIONS.
    ------------------------------------------------

 OUTPUT CONTROL FOR STRESS PERIOD    5   TIME STEP    3
    PRINT BUDGET
    SAVE BUDGET
 UBDSV1 SAVING "         STORAGE" ON UNIT 102 AT TIME STEP     3, STRESS PERIOD   5
 UBDSV2 SAVING "   CONSTANT HEAD" ON UNIT 102 AT TIME STEP     3, STRESS PERIOD   5
 UBDSV1 SAVING "FLOW RIGHT FACE " ON UNIT 102 AT TIME STEP     3, STRESS PERIOD   5
 UBDSV1 SAVING "FLOW FRONT FACE " ON UNIT 102 AT TIME STEP     3, STRESS PERIOD   5

  HEAD DEP BOUNDS   PERIOD    5   STEP     3
 BOUNDARY      1   LAYER   1   ROW    13   COL     1   RATE   -0.292988    
 BOUNDARY      2   LAYER   1   ROW    14   COL     9   RATE    0.285867    



 STREAM LISTING     PERIOD      5   STEP        3

 LAYER ROW COL. STREAM  RCH.  FLOW INTO     FLOW TO   FLOW OUT OF   OVRLND.     DIRECT     STREAM       STREAM     STREAM     STREAM   STREAMBED  STREAMBED
                SEG.NO.  NO.  STRM. RCH.    AQUIFER    STRM. RCH.    RUNOFF     PRECIP       ET          HEAD       DEPTH      WIDTH   CONDCTNC.   GRADIENT

   1    1    1     1     1    7.7000E+01  4.2703E-01   7.6573E+01  0.000E+00  0.000E+00  0.000E+00  1.09476E+03  1.708E+00  2.016E+01  9.070E-02  1.569E+00
   1    2    2     1     2    7.6573E+01  6.6237E-01   7.5911E+01  0.000E+00  0.000E+00  0.000E+00  1.08976E+03  1.706E+00  2.011E+01  1.408E-01  1.569E+00
   1    3    3     1     3    7.5911E+01  5.6590E-01   7.5345E+01  0.000E+00  0.000E+00  0.000E+00  1.08412E+03  1.703E+00  2.006E+01  1.203E-01  1.568E+00
   1    3    4     1     4    7.5345E+01  5.2193E-01   7.4823E+01  0.000E+00  0.000E+00  0.000E+00  1.07911E+03  1.700E+00  2.001E+01  1.110E-01  1.567E+00
   1    4    5     2     1    7.2823E+01  4.1259E-01   7.2410E+01  0.000E+00  0.000E+00  0.000E+00  1.07422E+03  2.290E+00  1.200E+01  7.800E-02  1.763E+00
   1    5    6     2     2    7.2410E+01  3.1696E-01   7.2093E+01  0.000E+00  0.000E+00  0.000E+00  1.06879E+03  2.283E+00  1.200E+01  6.000E-02  1.761E+00
   1    6    6     2     3    7.2093E+01  3.1660E-01   7.1777E+01  0.000E+00  0.000E+00  0.000E+00  1.06407E+03  2.277E+00  1.200E+01  6.000E-02  1.759E+00
   1    7    6     2     4    7.1777E+01  3.1624E-01   7.1460E+01  0.000E+00  0.000E+00  0.000E+00  1.05935E+03  2.271E+00  1.200E+01  6.000E-02  1.757E+00
   1    8    6     2     5    7.1460E+01  3.1588E-01   7.1144E+01  0.000E+00  0.000E+00  0.000E+00  1.05462E+03  2.265E+00  1.200E+01  6.000E-02  1.755E+00
   1    3    5     3     1    2.0000E+00  2.8252E-01   1.7175E+00  0.000E+00  0.000E+00  0.000E+00  1.07555E+03  1.909E+00  9.636E+00  7.227E-02  1.955E+00
   1    3    6     3     2    1.7175E+00  2.4905E-01   1.4684E+00  0.000E+00  0.000E+00  0.000E+00  1.07264E+03  1.727E+00  8.909E+00  6.682E-02  1.864E+00
   1    3    7     3     3    1.4684E+00  1.9718E-01   1.2712E+00  0.000E+00  0.000E+00  0.000E+00  1.06987E+03  1.555E+00  8.218E+00  5.547E-02  1.777E+00
   1    4    8     3     4    1.2712E+00  2.2567E-01   1.0456E+00  0.000E+00  0.000E+00  0.000E+00  1.06682E+03  1.364E+00  7.455E+00  6.709E-02  1.682E+00
   1    5    8     3     5    1.0456E+00  1.5790E-01   8.8768E-01  0.000E+00  0.000E+00  0.000E+00  1.06362E+03  1.164E+00  6.655E+00  4.991E-02  1.582E+00
   1    6    8     3     6    8.8768E-01  5.5980E-02   8.3170E-01  0.000E+00  0.000E+00  0.000E+00  1.06158E+03  1.036E+00  6.145E+00  1.844E-02  1.518E+00
   1    5   10     4     1    1.0000E+01  9.0919E-02   9.9091E+00  0.000E+00  0.000E+00  0.000E+00  1.07836E+03  6.368E-01  1.000E+01  2.500E-02  1.212E+00
   1    5    9     4     2    9.9091E+00  1.8158E-01   9.7275E+00  0.000E+00  0.000E+00  0.000E+00  1.07154E+03  6.315E-01  1.000E+01  5.000E-02  1.211E+00
   1    6    8     4     3    9.7275E+00  1.2689E-01   9.6006E+00  0.000E+00  0.000E+00  0.000E+00  1.06381E+03  6.256E-01  1.000E+01  3.500E-02  1.209E+00
   1    6    8     5     1    1.0432E+01  2.2686E-01   1.0205E+01  0.000E+00  0.000E+00  0.000E+00  1.05868E+03  6.790E-01  1.542E+01  6.166E-02  1.226E+00
   1    7    7     5     2    1.0205E+01  2.7894E-01   9.9265E+00  0.000E+00  0.000E+00  0.000E+00  1.05417E+03  6.732E-01  1.519E+01  7.594E-02  1.224E+00
   1    8    7     5     3    9.9265E+00  1.9221E-01   9.7343E+00  0.000E+00  0.000E+00  0.000E+00  1.04992E+03  6.676E-01  1.497E+01  5.241E-02  1.223E+00
   1    8    6     5     4    9.7343E+00  1.3577E-01   9.5985E+00  0.000E+00  0.000E+00  0.000E+00  1.04691E+03  6.637E-01  1.482E+01  3.706E-02  1.221E+00
   1    9    6     6     1    7.8382E+01  3.2525E-01   7.8056E+01  0.000E+00  0.000E+00  0.000E+00  1.04515E+03  2.421E+00  1.200E+01  6.000E-02  1.807E+00
   1   10    7     6     2    7.8056E+01  3.2489E-01   7.7732E+01  0.000E+00  0.000E+00  0.000E+00  1.04060E+03  2.415E+00  1.200E+01  6.000E-02  1.805E+00
   1   11    7     6     3    7.7732E+01  3.2452E-01   7.7407E+01  0.000E+00  0.000E+00  0.000E+00  1.03605E+03  2.409E+00  1.200E+01  6.000E-02  1.803E+00
   1   12    7     6     4    7.7407E+01  3.2416E-01   7.7083E+01  0.000E+00  0.000E+00  0.000E+00  1.03149E+03  2.403E+00  1.200E+01  6.000E-02  1.801E+00
   1   13    7     6     5    7.7083E+01  2.8866E-02   7.7054E+01  0.000E+00  0.000E+00  0.000E+00  1.02831E+03  2.399E+00  1.200E+01  2.400E-02  4.009E-01
   1   14    9     7     1    1.5000E+02  1.3374E+00   1.4866E+02  0.000E+00  0.000E+00  0.000E+00  1.03987E+03  2.288E+00  5.529E+01  5.593E-01  7.971E-01
   1   13    8     7     2    1.4866E+02  1.8338E+00   1.4683E+02  0.000E+00  0.000E+00  0.000E+00  1.03478E+03  2.279E+00  5.526E+01  6.148E-01  9.943E-01
   1   13    7     7     3    1.4683E+02  1.4431E+00   1.4539E+02  0.000E+00  0.000E+00  0.000E+00  1.02969E+03  2.271E+00  5.522E+01  5.585E-01  8.614E-01
   1   13    6     8     1    2.2244E+02  1.1179E+00   2.2132E+02  0.000E+00  0.000E+00  0.000E+00  1.02514E+03  3.262E+00  4.730E+01  4.820E-01  7.730E-01
   1   13    5     8     2    2.2132E+02  2.8615E-01   2.2104E+02  0.000E+00  0.000E+00  0.000E+00  1.01888E+03  3.258E+00  4.725E+01  4.815E-01  1.981E-01
   1   13    4     8     3    2.2104E+02 -1.8704E+00   2.2291E+02  0.000E+00  0.000E+00  0.000E+00  1.01264E+03  3.263E+00  4.731E+01  4.821E+00 -1.293E-01
   1   13    3     8     4    2.2291E+02 -3.1083E+00   2.2601E+02  0.000E+00  0.000E+00  0.000E+00  1.00640E+03  3.276E+00  4.751E+01  4.841E+00 -2.140E-01
   1   13    2     8     5    2.2601E+02 -1.9603E+00   2.2797E+02  0.000E+00  0.000E+00  0.000E+00  1.00017E+03  3.290E+00  4.771E+01  4.862E+00 -1.344E-01
   1   13    1     8     6    2.2797E+02 -1.5662E+00   2.2954E+02  0.000E+00  0.000E+00  0.000E+00  9.95175E+02  3.300E+00  4.785E+01  2.926E+00 -1.785E-01
   1    6    8     9     1    2.3613E+00  0.0000E+00   2.3613E+00  0.000E+00  0.000E+00  0.000E+00  1.07873E+03  2.267E-01  4.000E+00  0.000E+00  1.076E+00



 UBDSV3 SAVING "           GW ET" ON UNIT  61 AT TIME STEP     3, STRESS PERIOD   5
 UBDSV3 SAVING "    UZF RECHARGE" ON UNIT  61 AT TIME STEP     3, STRESS PERIOD   5
 UBDSV3 SAVING " SURFACE LEAKAGE" ON UNIT  61 AT TIME STEP     3, STRESS PERIOD   5
 UBDSV3 SAVING "       HORT+DUNN" ON UNIT  61 AT TIME STEP     3, STRESS PERIOD   5
 UBDSV3 SAVING "  STORAGE CHANGE" ON UNIT  61 AT TIME STEP     3, STRESS PERIOD   5


UNSATURATED ZONE PACKAGE VOLUMETRIC BUDGET FOR  TIME STEP     3 STRESS PERIOD    5
  ------------------------------------------------------------------------------



     CUMULATIVE VOLUMES      L**3       RATES FOR THIS TIME STEP      L**3/T
     ------------------                 ------------------------

           IN:                                      IN:
           ---                                      ---
        INFILTRATION =     9611401.0547          INFILTRATION =           2.3614

          OUT:                                     OUT:
          ----                                     ----
              UZF ET =       37809.0417                UZF ET =           0.1808
        UZF RECHARGE =      856735.1355          UZF RECHARGE =           0.2523

            IN - OUT =     8716856.8774              IN - OUT =           1.9283

          STORAGE:                                 STORAGE:
          --------                                 --------
      STORAGE CHANGE =     8717482.8709        STORAGE CHANGE =           1.9277

 PERCENT DISCREPANCY IS DIFFERENCE BETWEEN IN-OUT MINUS CHANGE IN STORAGE
 DIVIDED BY THE AVERAGE OF IN AND OUT TIMES 100

 PERCENT DISCREPANCY =          -0.00     PERCENT DISCREPANCY =           0.03






 

 AWU WELLS                PERIOD    5   STEP   3
 AWU WELL      1   LAYER   1   ROW     6   COL     4   RATE     0.00000    
 AWU WELL      2   LAYER   1   ROW     6   COL     5   RATE     0.00000    
 AWU WELL      3   LAYER   1   ROW     7   COL     4   RATE     0.00000    
 AWU WELL      4   LAYER   1   ROW     7   COL     5   RATE     0.00000    
 AWU WELL      5   LAYER   1   ROW     8   COL     4   RATE     0.00000    
 AWU WELL      6   LAYER   1   ROW     8   COL     5   RATE     0.00000    
 
 

 DIVERSION SEGMENTS       PERIOD    5   STEP   3
 SEGMENT      9   RATE     2.36133    
 
 

 SW IRRIGATION            PERIOD    5   STEP   3
 SEGMENT      9   ROW     6   COL     4   RATE    0.393562    
 SEGMENT      9   ROW     6   COL     5   RATE    0.393562    
 SEGMENT      9   ROW     7   COL     4   RATE    0.393562    
 SEGMENT      9   ROW     7   COL     5   RATE    0.393562    
 SEGMENT      9   ROW     8   COL     4   RATE    0.393562    
 SEGMENT      9   ROW     8   COL     5   RATE    0.393562    
 
 

 GW IRRIGATION            PERIOD    5   STEP   3
 AWU WELL      1   ROW     6   COL     4   RATE     0.00000    
 AWU WELL      2   ROW     6   COL     5   RATE     0.00000    
 AWU WELL      3   ROW     7   COL     4   RATE     0.00000    
 AWU WELL      4   ROW     7   COL     5   RATE     0.00000    
 AWU WELL      5   ROW     8   COL     4   RATE     0.00000    
 AWU WELL      6   ROW     8   COL     5   RATE     0.00000    
 
1
  VOLUMETRIC BUDGET FOR ENTIRE MODEL AT END OF TIME STEP    3, STRESS PERIOD   5
  ------------------------------------------------------------------------------

     CUMULATIVE VOLUMES      L**3       RATES FOR THIS TIME STEP      L**3/T
     ------------------                 ------------------------

           IN:                                      IN:
           ---                                      ---
    AWU WELLS            =     7134365.5000      AWU WELLS            =           0.0000
    DIVERSION SEGMENTS   =     2403811.5000      DIVERSION SEGMENTS   =           2.3614
    GW IRRIGATION        =           0.0000      GW IRRIGATION        =           0.0000
    SW IRRIGATION        =           0.0000      SW IRRIGATION        =           0.0000
    EFFICIENCY FACTOR GW =           0.0000      EFFICIENCY FACTOR GW =           0.0000
    EFFICIENCY FACTOR SW =           0.0000      EFFICIENCY FACTOR SW =           0.0000

                TOTAL IN =     9538177.0000                  TOTAL IN =           2.3614

          OUT:                                     OUT:
          ----                                     ----
    AWU WELLS            =           0.0000      AWU WELLS            =           0.0000
    DIVERSION SEGMENTS   =           0.0000      DIVERSION SEGMENTS   =           0.0000
    GW IRRIGATION        =     7134365.5000      GW IRRIGATION        =           0.0000
    SW IRRIGATION        =     2403811.5000      SW IRRIGATION        =           2.3614
    EFFICIENCY FACTOR GW =           0.0000      EFFICIENCY FACTOR GW =           0.0000
    EFFICIENCY FACTOR SW =           0.0000      EFFICIENCY FACTOR SW =           0.0000

               TOTAL OUT =     9538177.0000                 TOTAL OUT =           2.3614

                IN - OUT =           0.0000                  IN - OUT =           0.0000

     PERCENT DISCREPANCY =           0.00         PERCENT DISCREPANCY =           0.00



1
  VOLUMETRIC BUDGET FOR ENTIRE MODEL AT END OF TIME STEP    3, STRESS PERIOD   5
  ------------------------------------------------------------------------------

     CUMULATIVE VOLUMES      L**3       RATES FOR THIS TIME STEP      L**3/T
     ------------------                 ------------------------

           IN:                                      IN:
           ---                                      ---
             STORAGE     =    12208450.0000               STORAGE     =           1.5278
       CONSTANT HEAD     =           0.0000         CONSTANT HEAD     =           0.0000
     HEAD DEP BOUNDS     =     2353135.7500       HEAD DEP BOUNDS     =           0.2859
      STREAM LEAKAGE     =    95370024.0000        STREAM LEAKAGE     =          13.6030
        UZF RECHARGE     =      856735.1875          UZF RECHARGE     =           0.2523
               GW ET     =           0.0000                 GW ET     =           0.0000
     SURFACE LEAKAGE     =           0.0000       SURFACE LEAKAGE     =           0.0000
    AWU WELLS            =           0.0000      AWU WELLS            =           0.0000

                TOTAL IN =   110788344.0000                  TOTAL IN =          15.6689

          OUT:                                     OUT:
          ----                                     ----
             STORAGE     =    15824564.0000               STORAGE     =           6.3442
       CONSTANT HEAD     =           0.0000         CONSTANT HEAD     =           0.0000
     HEAD DEP BOUNDS     =     2375725.7500       HEAD DEP BOUNDS     =           0.2930
      STREAM LEAKAGE     =    85156608.0000        STREAM LEAKAGE     =           8.5052
        UZF RECHARGE     =           0.0000          UZF RECHARGE     =           0.0000
               GW ET     =      303909.2188                 GW ET     =           0.5265
     SURFACE LEAKAGE     =           0.0000       SURFACE LEAKAGE     =           0.0000
    AWU WELLS            =     7134365.5000      AWU WELLS            =           0.0000

               TOTAL OUT =   110795176.0000                 TOTAL OUT =          15.6689

                IN - OUT =       -6832.0000                  IN - OUT =      -7.0572E-05

     PERCENT DISCREPANCY =          -0.01         PERCENT DISCREPANCY =          -0.00






         TIME SUMMARY AT END OF TIME STEP    3 IN STRESS PERIOD    5
                    SECONDS     MINUTES      HOURS       DAYS        YEARS
                    -----------------------------------------------------------
   TIME STEP LENGTH  87600.      1460.0      24.333      1.0139     2.77588E-03
 STRESS PERIOD TIME 2.62800E+05  4380.0      73.000      3.0417     8.32763E-03
         TOTAL TIME 8.23320E+06 1.37220E+05  2287.0      95.292     0.26089    
1
 
 SOLVING FOR HEAD 
                                                   Max.-Head-Change                         Max.-Flux-Residual
  Residual-Control   Outer-Iter.   Inner-Iter.     Column Row Layer    Maximum-Head-Change  Column Row Layer    Maximum-Flux-Residual          L2-NORM 
          0                 1           2             2    2     1       0.7746209892E-02       2    2    1         0.4047128837E+00      0.1054163273E+01
          0                 2           2             4   13     1       0.6932509042E-02       4   13    1         0.4006243019E+00      0.6999656005E+00
          0                 3           2             4   13     1      -0.3402798407E-03       4   13    1        -0.1986215367E-01      0.3320146412E-01
          0                 4           1             4   13     1       0.1348532475E-04       4   13    1         0.7951992584E-03      0.1328963819E-02

    ------------------------------------------------
       NWT REQUIRED            4 OUTER ITERATIONS 
       AND A TOTAL OF          7 INNER ITERATIONS.
    ------------------------------------------------

 OUTPUT CONTROL FOR STRESS PERIOD    5   TIME STEP    4
    PRINT BUDGET
    SAVE BUDGET
 UBDSV1 SAVING "         STORAGE" ON UNIT 102 AT TIME STEP     4, STRESS PERIOD   5
 UBDSV2 SAVING "   CONSTANT HEAD" ON UNIT 102 AT TIME STEP     4, STRESS PERIOD   5
 UBDSV1 SAVING "FLOW RIGHT FACE " ON UNIT 102 AT TIME STEP     4, STRESS PERIOD   5
 UBDSV1 SAVING "FLOW FRONT FACE " ON UNIT 102 AT TIME STEP     4, STRESS PERIOD   5

  HEAD DEP BOUNDS   PERIOD    5   STEP     4
 BOUNDARY      1   LAYER   1   ROW    13   COL     1   RATE   -0.293196    
 BOUNDARY      2   LAYER   1   ROW    14   COL     9   RATE    0.285868    



 STREAM LISTING     PERIOD      5   STEP        4

 LAYER ROW COL. STREAM  RCH.  FLOW INTO     FLOW TO   FLOW OUT OF   OVRLND.     DIRECT     STREAM       STREAM     STREAM     STREAM   STREAMBED  STREAMBED
                SEG.NO.  NO.  STRM. RCH.    AQUIFER    STRM. RCH.    RUNOFF     PRECIP       ET          HEAD       DEPTH      WIDTH   CONDCTNC.   GRADIENT

   1    1    1     1     1    7.7000E+01  4.2703E-01   7.6573E+01  0.000E+00  0.000E+00  0.000E+00  1.09476E+03  1.708E+00  2.016E+01  9.070E-02  1.569E+00
   1    2    2     1     2    7.6573E+01  6.6237E-01   7.5911E+01  0.000E+00  0.000E+00  0.000E+00  1.08976E+03  1.706E+00  2.011E+01  1.408E-01  1.569E+00
   1    3    3     1     3    7.5911E+01  5.6590E-01   7.5345E+01  0.000E+00  0.000E+00  0.000E+00  1.08412E+03  1.703E+00  2.006E+01  1.203E-01  1.568E+00
   1    3    4     1     4    7.5345E+01  5.2193E-01   7.4823E+01  0.000E+00  0.000E+00  0.000E+00  1.07911E+03  1.700E+00  2.001E+01  1.110E-01  1.567E+00
   1    4    5     2     1    7.2823E+01  4.1259E-01   7.2410E+01  0.000E+00  0.000E+00  0.000E+00  1.07422E+03  2.290E+00  1.200E+01  7.800E-02  1.763E+00
   1    5    6     2     2    7.2410E+01  3.1696E-01   7.2093E+01  0.000E+00  0.000E+00  0.000E+00  1.06879E+03  2.283E+00  1.200E+01  6.000E-02  1.761E+00
   1    6    6     2     3    7.2093E+01  3.1660E-01   7.1777E+01  0.000E+00  0.000E+00  0.000E+00  1.06407E+03  2.277E+00  1.200E+01  6.000E-02  1.759E+00
   1    7    6     2     4    7.1777E+01  3.1624E-01   7.1460E+01  0.000E+00  0.000E+00  0.000E+00  1.05935E+03  2.271E+00  1.200E+01  6.000E-02  1.757E+00
   1    8    6     2     5    7.1460E+01  3.1588E-01   7.1144E+01  0.000E+00  0.000E+00  0.000E+00  1.05462E+03  2.265E+00  1.200E+01  6.000E-02  1.755E+00
   1    3    5     3     1    2.0000E+00  2.8252E-01   1.7175E+00  0.000E+00  0.000E+00  0.000E+00  1.07555E+03  1.909E+00  9.636E+00  7.227E-02  1.955E+00
   1    3    6     3     2    1.7175E+00  2.4905E-01   1.4684E+00  0.000E+00  0.000E+00  0.000E+00  1.07264E+03  1.727E+00  8.909E+00  6.682E-02  1.864E+00
   1    3    7     3     3    1.4684E+00  1.9718E-01   1.2712E+00  0.000E+00  0.000E+00  0.000E+00  1.06987E+03  1.555E+00  8.218E+00  5.547E-02  1.777E+00
   1    4    8     3     4    1.2712E+00  2.2567E-01   1.0456E+00  0.000E+00  0.000E+00  0.000E+00  1.06682E+03  1.364E+00  7.455E+00  6.709E-02  1.682E+00
   1    5    8     3     5    1.0456E+00  1.5790E-01   8.8768E-01  0.000E+00  0.000E+00  0.000E+00  1.06362E+03  1.164E+00  6.655E+00  4.991E-02  1.582E+00
   1    6    8     3     6    8.8768E-01  5.5980E-02   8.3170E-01  0.000E+00  0.000E+00  0.000E+00  1.06158E+03  1.036E+00  6.145E+00  1.844E-02  1.518E+00
   1    5   10     4     1    1.0000E+01  9.0919E-02   9.9091E+00  0.000E+00  0.000E+00  0.000E+00  1.07836E+03  6.368E-01  1.000E+01  2.500E-02  1.212E+00
   1    5    9     4     2    9.9091E+00  1.8158E-01   9.7275E+00  0.000E+00  0.000E+00  0.000E+00  1.07154E+03  6.315E-01  1.000E+01  5.000E-02  1.211E+00
   1    6    8     4     3    9.7275E+00  1.2689E-01   9.6006E+00  0.000E+00  0.000E+00  0.000E+00  1.06381E+03  6.256E-01  1.000E+01  3.500E-02  1.209E+00
   1    6    8     5     1    1.0432E+01  2.2686E-01   1.0205E+01  0.000E+00  0.000E+00  0.000E+00  1.05868E+03  6.790E-01  1.542E+01  6.166E-02  1.226E+00
   1    7    7     5     2    1.0205E+01  2.7894E-01   9.9265E+00  0.000E+00  0.000E+00  0.000E+00  1.05417E+03  6.732E-01  1.519E+01  7.594E-02  1.224E+00
   1    8    7     5     3    9.9265E+00  1.9221E-01   9.7343E+00  0.000E+00  0.000E+00  0.000E+00  1.04992E+03  6.676E-01  1.497E+01  5.241E-02  1.223E+00
   1    8    6     5     4    9.7343E+00  1.3577E-01   9.5985E+00  0.000E+00  0.000E+00  0.000E+00  1.04691E+03  6.637E-01  1.482E+01  3.706E-02  1.221E+00
   1    9    6     6     1    7.8638E+01  3.2553E-01   7.8312E+01  0.000E+00  0.000E+00  0.000E+00  1.04515E+03  2.426E+00  1.200E+01  6.000E-02  1.809E+00
   1   10    7     6     2    7.8312E+01  3.2517E-01   7.7987E+01  0.000E+00  0.000E+00  0.000E+00  1.04060E+03  2.420E+00  1.200E+01  6.000E-02  1.807E+00
   1   11    7     6     3    7.7987E+01  3.2481E-01   7.7662E+01  0.000E+00  0.000E+00  0.000E+00  1.03605E+03  2.413E+00  1.200E+01  6.000E-02  1.804E+00
   1   12    7     6     4    7.7662E+01  3.2445E-01   7.7338E+01  0.000E+00  0.000E+00  0.000E+00  1.03150E+03  2.407E+00  1.200E+01  6.000E-02  1.802E+00
   1   13    7     6     5    7.7338E+01  2.8957E-02   7.7309E+01  0.000E+00  0.000E+00  0.000E+00  1.02831E+03  2.404E+00  1.200E+01  2.400E-02  4.022E-01
   1   14    9     7     1    1.5000E+02  1.3374E+00   1.4866E+02  0.000E+00  0.000E+00  0.000E+00  1.03987E+03  2.288E+00  5.529E+01  5.593E-01  7.971E-01
   1   13    8     7     2    1.4866E+02  1.8336E+00   1.4683E+02  0.000E+00  0.000E+00  0.000E+00  1.03478E+03  2.279E+00  5.526E+01  6.148E-01  9.942E-01
   1   13    7     7     3    1.4683E+02  1.4426E+00   1.4539E+02  0.000E+00  0.000E+00  0.000E+00  1.02969E+03  2.271E+00  5.522E+01  5.585E-01  8.611E-01
   1   13    6     8     1    2.2270E+02  1.1175E+00   2.2158E+02  0.000E+00  0.000E+00  0.000E+00  1.02514E+03  3.264E+00  4.732E+01  4.822E-01  7.724E-01
   1   13    5     8     2    2.2158E+02  2.8606E-01   2.2129E+02  0.000E+00  0.000E+00  0.000E+00  1.01888E+03  3.260E+00  4.727E+01  4.817E-01  1.980E-01
   1   13    4     8     3    2.2129E+02 -1.9034E+00   2.2320E+02  0.000E+00  0.000E+00  0.000E+00  1.01264E+03  3.264E+00  4.733E+01  4.823E+00 -1.315E-01
   1   13    3     8     4    2.2320E+02 -3.1384E+00   2.2633E+02  0.000E+00  0.000E+00  0.000E+00  1.00640E+03  3.278E+00  4.753E+01  4.844E+00 -2.160E-01
   1   13    2     8     5    2.2633E+02 -1.9966E+00   2.2833E+02  0.000E+00  0.000E+00  0.000E+00  1.00017E+03  3.292E+00  4.774E+01  4.864E+00 -1.368E-01
   1   13    1     8     6    2.2833E+02 -1.5774E+00   2.2991E+02  0.000E+00  0.000E+00  0.000E+00  9.95177E+02  3.302E+00  4.788E+01  2.927E+00 -1.796E-01
   1    6    8     9     1    2.1050E+00  0.0000E+00   2.1050E+00  0.000E+00  0.000E+00  0.000E+00  1.07871E+03  2.116E-01  4.000E+00  0.000E+00  1.071E+00



 UBDSV3 SAVING "           GW ET" ON UNIT  61 AT TIME STEP     4, STRESS PERIOD   5
 UBDSV3 SAVING "    UZF RECHARGE" ON UNIT  61 AT TIME STEP     4, STRESS PERIOD   5
 UBDSV3 SAVING " SURFACE LEAKAGE" ON UNIT  61 AT TIME STEP     4, STRESS PERIOD   5
 UBDSV3 SAVING "       HORT+DUNN" ON UNIT  61 AT TIME STEP     4, STRESS PERIOD   5
 UBDSV3 SAVING "  STORAGE CHANGE" ON UNIT  61 AT TIME STEP     4, STRESS PERIOD   5


UNSATURATED ZONE PACKAGE VOLUMETRIC BUDGET FOR  TIME STEP     4 STRESS PERIOD    5
  ------------------------------------------------------------------------------



     CUMULATIVE VOLUMES      L**3       RATES FOR THIS TIME STEP      L**3/T
     ------------------                 ------------------------

           IN:                                      IN:
           ---                                      ---
        INFILTRATION =     9795804.0820          INFILTRATION =           2.1051

          OUT:                                     OUT:
          ----                                     ----
              UZF ET =       55068.1428                UZF ET =           0.1970
        UZF RECHARGE =      878223.8031          UZF RECHARGE =           0.2453

            IN - OUT =     8862512.1361              IN - OUT =           1.6627

          STORAGE:                                 STORAGE:
          --------                                 --------
      STORAGE CHANGE =     8863118.8522        STORAGE CHANGE =           1.6625

 PERCENT DISCREPANCY IS DIFFERENCE BETWEEN IN-OUT MINUS CHANGE IN STORAGE
 DIVIDED BY THE AVERAGE OF IN AND OUT TIMES 100

 PERCENT DISCREPANCY =          -0.00     PERCENT DISCREPANCY =           0.01






 

 AWU WELLS                PERIOD    5   STEP   4
 AWU WELL      1   LAYER   1   ROW     6   COL     4   RATE     0.00000    
 AWU WELL      2   LAYER   1   ROW     6   COL     5   RATE     0.00000    
 AWU WELL      3   LAYER   1   ROW     7   COL     4   RATE     0.00000    
 AWU WELL      4   LAYER   1   ROW     7   COL     5   RATE     0.00000    
 AWU WELL      5   LAYER   1   ROW     8   COL     4   RATE     0.00000    
 AWU WELL      6   LAYER   1   ROW     8   COL     5   RATE     0.00000    
 
 

 DIVERSION SEGMENTS       PERIOD    5   STEP   4
 SEGMENT      9   RATE     2.10502    
 
 

 SW IRRIGATION            PERIOD    5   STEP   4
 SEGMENT      9   ROW     6   COL     4   RATE    0.350843    
 SEGMENT      9   ROW     6   COL     5   RATE    0.350843    
 SEGMENT      9   ROW     7   COL     4   RATE    0.350843    
 SEGMENT      9   ROW     7   COL     5   RATE    0.350843    
 SEGMENT      9   ROW     8   COL     4   RATE    0.350843    
 SEGMENT      9   ROW     8   COL     5   RATE    0.350843    
 
 

 GW IRRIGATION            PERIOD    5   STEP   4
 AWU WELL      1   ROW     6   COL     4   RATE     0.00000    
 AWU WELL      2   ROW     6   COL     5   RATE     0.00000    
 AWU WELL      3   ROW     7   COL     4   RATE     0.00000    
 AWU WELL      4   ROW     7   COL     5   RATE     0.00000    
 AWU WELL      5   ROW     8   COL     4   RATE     0.00000    
 AWU WELL      6   ROW     8   COL     5   RATE     0.00000    
 
1
  VOLUMETRIC BUDGET FOR ENTIRE MODEL AT END OF TIME STEP    4, STRESS PERIOD   5
  ------------------------------------------------------------------------------

     CUMULATIVE VOLUMES      L**3       RATES FOR THIS TIME STEP      L**3/T
     ------------------                 ------------------------

           IN:                                      IN:
           ---                                      ---
    AWU WELLS            =     7134365.5000      AWU WELLS            =           0.0000
    DIVERSION SEGMENTS   =     2588214.5000      DIVERSION SEGMENTS   =           2.1051
    GW IRRIGATION        =           0.0000      GW IRRIGATION        =           0.0000
    SW IRRIGATION        =           0.0000      SW IRRIGATION        =           0.0000
    EFFICIENCY FACTOR GW =           0.0000      EFFICIENCY FACTOR GW =           0.0000
    EFFICIENCY FACTOR SW =           0.0000      EFFICIENCY FACTOR SW =           0.0000

                TOTAL IN =     9722580.0000                  TOTAL IN =           2.1051

          OUT:                                     OUT:
          ----                                     ----
    AWU WELLS            =           0.0000      AWU WELLS            =           0.0000
    DIVERSION SEGMENTS   =           0.0000      DIVERSION SEGMENTS   =           0.0000
    GW IRRIGATION        =     7134365.5000      GW IRRIGATION        =           0.0000
    SW IRRIGATION        =     2588214.5000      SW IRRIGATION        =           2.1051
    EFFICIENCY FACTOR GW =           0.0000      EFFICIENCY FACTOR GW =           0.0000
    EFFICIENCY FACTOR SW =           0.0000      EFFICIENCY FACTOR SW =           0.0000

               TOTAL OUT =     9722580.0000                 TOTAL OUT =           2.1051

                IN - OUT =           0.0000                  IN - OUT =           0.0000

     PERCENT DISCREPANCY =           0.00         PERCENT DISCREPANCY =           0.00



1
  VOLUMETRIC BUDGET FOR ENTIRE MODEL AT END OF TIME STEP    4, STRESS PERIOD   5
  ------------------------------------------------------------------------------

     CUMULATIVE VOLUMES      L**3       RATES FOR THIS TIME STEP      L**3/T
     ------------------                 ------------------------

           IN:                                      IN:
           ---                                      ---
             STORAGE     =    12336167.0000               STORAGE     =           1.4580
       CONSTANT HEAD     =           0.0000         CONSTANT HEAD     =           0.0000
     HEAD DEP BOUNDS     =     2378177.7500       HEAD DEP BOUNDS     =           0.2859
      STREAM LEAKAGE     =    96561656.0000        STREAM LEAKAGE     =          13.6031
        UZF RECHARGE     =      878223.8750          UZF RECHARGE     =           0.2453
               GW ET     =           0.0000                 GW ET     =           0.0000
     SURFACE LEAKAGE     =           0.0000       SURFACE LEAKAGE     =           0.0000
    AWU WELLS            =           0.0000      AWU WELLS            =           0.0000

                TOTAL IN =   112154224.0000                  TOTAL IN =          15.5922

          OUT:                                     OUT:
          ----                                     ----
             STORAGE     =    16363817.0000               STORAGE     =           6.1559
       CONSTANT HEAD     =           0.0000         CONSTANT HEAD     =           0.0000
     HEAD DEP BOUNDS     =     2401409.7500       HEAD DEP BOUNDS     =           0.2932
      STREAM LEAKAGE     =    85911352.0000        STREAM LEAKAGE     =           8.6158
        UZF RECHARGE     =           0.0000          UZF RECHARGE     =           0.0000
               GW ET     =      350112.0000                 GW ET     =           0.5274
     SURFACE LEAKAGE     =           0.0000       SURFACE LEAKAGE     =           0.0000
    AWU WELLS            =     7134365.5000      AWU WELLS            =           0.0000

               TOTAL OUT =   112161056.0000                 TOTAL OUT =          15.5923

                IN - OUT =       -6832.0000                  IN - OUT =      -7.0572E-05

     PERCENT DISCREPANCY =          -0.01         PERCENT DISCREPANCY =          -0.00






         TIME SUMMARY AT END OF TIME STEP    4 IN STRESS PERIOD    5
                    SECONDS     MINUTES      HOURS       DAYS        YEARS
                    -----------------------------------------------------------
   TIME STEP LENGTH  87600.      1460.0      24.333      1.0139     2.77588E-03
 STRESS PERIOD TIME 3.50400E+05  5840.0      97.333      4.0556     1.11035E-02
         TOTAL TIME 8.32080E+06 1.38680E+05  2311.3      96.306     0.26367    
1
 
 SOLVING FOR HEAD 
                                                   Max.-Head-Change                         Max.-Flux-Residual
  Residual-Control   Outer-Iter.   Inner-Iter.     Column Row Layer    Maximum-Head-Change  Column Row Layer    Maximum-Flux-Residual          L2-NORM 
          0                 1           2             2    2     1       0.7696267875E-02       2    2    1         0.4020848306E+00      0.1014793262E+01
          0                 2           2             4   13     1       0.7024106466E-02       4   13    1         0.4059387228E+00      0.7082047684E+00
          0                 3           2             4   13     1      -0.3448309728E-03       4   13    1        -0.2012883539E-01      0.3354604212E-01
          0                 4           1             4   13     1       0.1368646399E-04       4   13    1         0.8071109905E-03      0.1334061229E-02

    ------------------------------------------------
       NWT REQUIRED            4 OUTER ITERATIONS 
       AND A TOTAL OF          7 INNER ITERATIONS.
    ------------------------------------------------

 NO OUTPUT CONTROL FOR STRESS PERIOD    5   TIME STEP    5
 
 SOLVING FOR HEAD 
                                                   Max.-Head-Change                         Max.-Flux-Residual
  Residual-Control   Outer-Iter.   Inner-Iter.     Column Row Layer    Maximum-Head-Change  Column Row Layer    Maximum-Flux-Residual          L2-NORM 
          0                 1           2             2    2     1       0.7646971943E-02       2    2    1         0.3994908835E+00      0.1029059676E+01
          0                 2           2             4   13     1       0.4678912869E-02       4   13    1         0.2704391939E+00      0.4738334291E+00
          0                 3           2             4   13     1      -0.2297585127E-03       4   13    1        -0.1341335737E-01      0.2275566562E-01
          0                 4           1             4   13     1       0.9114288831E-05       4   13    1         0.5375241617E-03      0.9551352605E-03

    ------------------------------------------------
       NWT REQUIRED            4 OUTER ITERATIONS 
       AND A TOTAL OF          7 INNER ITERATIONS.
    ------------------------------------------------

 OUTPUT CONTROL FOR STRESS PERIOD    5   TIME STEP    6
    PRINT BUDGET
    SAVE BUDGET
 UBDSV1 SAVING "         STORAGE" ON UNIT 102 AT TIME STEP     6, STRESS PERIOD   5
 UBDSV2 SAVING "   CONSTANT HEAD" ON UNIT 102 AT TIME STEP     6, STRESS PERIOD   5
 UBDSV1 SAVING "FLOW RIGHT FACE " ON UNIT 102 AT TIME STEP     6, STRESS PERIOD   5
 UBDSV1 SAVING "FLOW FRONT FACE " ON UNIT 102 AT TIME STEP     6, STRESS PERIOD   5

  HEAD DEP BOUNDS   PERIOD    5   STEP     6
 BOUNDARY      1   LAYER   1   ROW    13   COL     1   RATE   -0.293587    
 BOUNDARY      2   LAYER   1   ROW    14   COL     9   RATE    0.285870    



 STREAM LISTING     PERIOD      5   STEP        6

 LAYER ROW COL. STREAM  RCH.  FLOW INTO     FLOW TO   FLOW OUT OF   OVRLND.     DIRECT     STREAM       STREAM     STREAM     STREAM   STREAMBED  STREAMBED
                SEG.NO.  NO.  STRM. RCH.    AQUIFER    STRM. RCH.    RUNOFF     PRECIP       ET          HEAD       DEPTH      WIDTH   CONDCTNC.   GRADIENT

   1    1    1     1     1    7.7000E+01  4.2703E-01   7.6573E+01  0.000E+00  0.000E+00  0.000E+00  1.09476E+03  1.708E+00  2.016E+01  9.070E-02  1.569E+00
   1    2    2     1     2    7.6573E+01  6.6237E-01   7.5911E+01  0.000E+00  0.000E+00  0.000E+00  1.08976E+03  1.706E+00  2.011E+01  1.408E-01  1.569E+00
   1    3    3     1     3    7.5911E+01  5.6590E-01   7.5345E+01  0.000E+00  0.000E+00  0.000E+00  1.08412E+03  1.703E+00  2.006E+01  1.203E-01  1.568E+00
   1    3    4     1     4    7.5345E+01  5.2193E-01   7.4823E+01  0.000E+00  0.000E+00  0.000E+00  1.07911E+03  1.700E+00  2.001E+01  1.110E-01  1.567E+00
   1    4    5     2     1    7.2823E+01  4.1259E-01   7.2410E+01  0.000E+00  0.000E+00  0.000E+00  1.07422E+03  2.290E+00  1.200E+01  7.800E-02  1.763E+00
   1    5    6     2     2    7.2410E+01  3.1696E-01   7.2093E+01  0.000E+00  0.000E+00  0.000E+00  1.06879E+03  2.283E+00  1.200E+01  6.000E-02  1.761E+00
   1    6    6     2     3    7.2093E+01  3.1660E-01   7.1777E+01  0.000E+00  0.000E+00  0.000E+00  1.06407E+03  2.277E+00  1.200E+01  6.000E-02  1.759E+00
   1    7    6     2     4    7.1777E+01  3.1624E-01   7.1460E+01  0.000E+00  0.000E+00  0.000E+00  1.05935E+03  2.271E+00  1.200E+01  6.000E-02  1.757E+00
   1    8    6     2     5    7.1460E+01  3.1588E-01   7.1144E+01  0.000E+00  0.000E+00  0.000E+00  1.05462E+03  2.265E+00  1.200E+01  6.000E-02  1.755E+00
   1    3    5     3     1    2.0000E+00  2.8252E-01   1.7175E+00  0.000E+00  0.000E+00  0.000E+00  1.07555E+03  1.909E+00  9.636E+00  7.227E-02  1.955E+00
   1    3    6     3     2    1.7175E+00  2.4905E-01   1.4684E+00  0.000E+00  0.000E+00  0.000E+00  1.07264E+03  1.727E+00  8.909E+00  6.682E-02  1.864E+00
   1    3    7     3     3    1.4684E+00  1.9718E-01   1.2712E+00  0.000E+00  0.000E+00  0.000E+00  1.06987E+03  1.555E+00  8.218E+00  5.547E-02  1.777E+00
   1    4    8     3     4    1.2712E+00  2.2567E-01   1.0456E+00  0.000E+00  0.000E+00  0.000E+00  1.06682E+03  1.364E+00  7.455E+00  6.709E-02  1.682E+00
   1    5    8     3     5    1.0456E+00  1.5790E-01   8.8768E-01  0.000E+00  0.000E+00  0.000E+00  1.06362E+03  1.164E+00  6.655E+00  4.991E-02  1.582E+00
   1    6    8     3     6    8.8768E-01  5.5980E-02   8.3170E-01  0.000E+00  0.000E+00  0.000E+00  1.06158E+03  1.036E+00  6.145E+00  1.844E-02  1.518E+00
   1    5   10     4     1    1.0000E+01  9.0919E-02   9.9091E+00  0.000E+00  0.000E+00  0.000E+00  1.07836E+03  6.368E-01  1.000E+01  2.500E-02  1.212E+00
   1    5    9     4     2    9.9091E+00  1.8158E-01   9.7275E+00  0.000E+00  0.000E+00  0.000E+00  1.07154E+03  6.315E-01  1.000E+01  5.000E-02  1.211E+00
   1    6    8     4     3    9.7275E+00  1.2689E-01   9.6006E+00  0.000E+00  0.000E+00  0.000E+00  1.06381E+03  6.256E-01  1.000E+01  3.500E-02  1.209E+00
   1    6    8     5     1    1.0432E+01  2.2686E-01   1.0205E+01  0.000E+00  0.000E+00  0.000E+00  1.05868E+03  6.790E-01  1.542E+01  6.166E-02  1.226E+00
   1    7    7     5     2    1.0205E+01  2.7894E-01   9.9265E+00  0.000E+00  0.000E+00  0.000E+00  1.05417E+03  6.732E-01  1.519E+01  7.594E-02  1.224E+00
   1    8    7     5     3    9.9265E+00  1.9221E-01   9.7343E+00  0.000E+00  0.000E+00  0.000E+00  1.04992E+03  6.676E-01  1.497E+01  5.241E-02  1.223E+00
   1    8    6     5     4    9.7343E+00  1.3577E-01   9.5985E+00  0.000E+00  0.000E+00  0.000E+00  1.04691E+03  6.637E-01  1.482E+01  3.706E-02  1.221E+00
   1    9    6     6     1    7.8932E+01  3.2586E-01   7.8606E+01  0.000E+00  0.000E+00  0.000E+00  1.04516E+03  2.431E+00  1.200E+01  6.000E-02  1.810E+00
   1   10    7     6     2    7.8606E+01  3.2550E-01   7.8281E+01  0.000E+00  0.000E+00  0.000E+00  1.04061E+03  2.425E+00  1.200E+01  6.000E-02  1.808E+00
   1   11    7     6     3    7.8281E+01  3.2514E-01   7.7956E+01  0.000E+00  0.000E+00  0.000E+00  1.03606E+03  2.419E+00  1.200E+01  6.000E-02  1.806E+00
   1   12    7     6     4    7.7956E+01  3.2477E-01   7.7631E+01  0.000E+00  0.000E+00  0.000E+00  1.03150E+03  2.413E+00  1.200E+01  6.000E-02  1.804E+00
   1   13    7     6     5    7.7631E+01  2.9043E-02   7.7602E+01  0.000E+00  0.000E+00  0.000E+00  1.02832E+03  2.410E+00  1.200E+01  2.400E-02  4.034E-01
   1   14    9     7     1    1.5000E+02  1.3374E+00   1.4866E+02  0.000E+00  0.000E+00  0.000E+00  1.03987E+03  2.288E+00  5.529E+01  5.593E-01  7.971E-01
   1   13    8     7     2    1.4866E+02  1.8333E+00   1.4683E+02  0.000E+00  0.000E+00  0.000E+00  1.03478E+03  2.279E+00  5.526E+01  6.148E-01  9.940E-01
   1   13    7     7     3    1.4683E+02  1.4416E+00   1.4539E+02  0.000E+00  0.000E+00  0.000E+00  1.02969E+03  2.271E+00  5.522E+01  5.585E-01  8.604E-01
   1   13    6     8     1    2.2299E+02  1.1160E+00   2.2187E+02  0.000E+00  0.000E+00  0.000E+00  1.02514E+03  3.265E+00  4.735E+01  4.825E-01  7.710E-01
   1   13    5     8     2    2.2187E+02  2.8513E-01   2.2159E+02  0.000E+00  0.000E+00  0.000E+00  1.01889E+03  3.261E+00  4.729E+01  4.819E-01  1.972E-01
   1   13    4     8     3    2.2159E+02 -1.9639E+00   2.2355E+02  0.000E+00  0.000E+00  0.000E+00  1.01264E+03  3.266E+00  4.736E+01  4.826E+00 -1.356E-01
   1   13    3     8     4    2.2355E+02 -3.1950E+00   2.2675E+02  0.000E+00  0.000E+00  0.000E+00  1.00641E+03  3.280E+00  4.756E+01  4.847E+00 -2.197E-01
   1   13    2     8     5    2.2675E+02 -2.0645E+00   2.2881E+02  0.000E+00  0.000E+00  0.000E+00  1.00017E+03  3.295E+00  4.777E+01  4.868E+00 -1.414E-01
   1   13    1     8     6    2.2881E+02 -1.6010E+00   2.3041E+02  0.000E+00  0.000E+00  0.000E+00  9.95179E+02  3.304E+00  4.791E+01  2.930E+00 -1.822E-01
   1    6    8     9     1    1.8110E+00  0.0000E+00   1.8110E+00  0.000E+00  0.000E+00  0.000E+00  1.07869E+03  1.933E-01  4.000E+00  0.000E+00  1.064E+00



 UBDSV3 SAVING "           GW ET" ON UNIT  61 AT TIME STEP     6, STRESS PERIOD   5
 UBDSV3 SAVING "    UZF RECHARGE" ON UNIT  61 AT TIME STEP     6, STRESS PERIOD   5
 UBDSV3 SAVING " SURFACE LEAKAGE" ON UNIT  61 AT TIME STEP     6, STRESS PERIOD   5
 UBDSV3 SAVING "       HORT+DUNN" ON UNIT  61 AT TIME STEP     6, STRESS PERIOD   5
 UBDSV3 SAVING "  STORAGE CHANGE" ON UNIT  61 AT TIME STEP     6, STRESS PERIOD   5


UNSATURATED ZONE PACKAGE VOLUMETRIC BUDGET FOR  TIME STEP     6 STRESS PERIOD    5
  ------------------------------------------------------------------------------



     CUMULATIVE VOLUMES      L**3       RATES FOR THIS TIME STEP      L**3/T
     ------------------                 ------------------------

           IN:                                      IN:
           ---                                      ---
        INFILTRATION =    10123796.7305          INFILTRATION =           1.8111

          OUT:                                     OUT:
          ----                                     ----
              UZF ET =       92673.3860                UZF ET =           0.2196
        UZF RECHARGE =      919468.6800          UZF RECHARGE =           0.2322

            IN - OUT =     9111654.6645              IN - OUT =           1.3592

          STORAGE:                                 STORAGE:
          --------                                 --------
      STORAGE CHANGE =     9112227.0194        STORAGE CHANGE =           1.3590

 PERCENT DISCREPANCY IS DIFFERENCE BETWEEN IN-OUT MINUS CHANGE IN STORAGE
 DIVIDED BY THE AVERAGE OF IN AND OUT TIMES 100

 PERCENT DISCREPANCY =          -0.00     PERCENT DISCREPANCY =           0.01






 

 AWU WELLS                PERIOD    5   STEP   6
 AWU WELL      1   LAYER   1   ROW     6   COL     4   RATE     0.00000    
 AWU WELL      2   LAYER   1   ROW     6   COL     5   RATE     0.00000    
 AWU WELL      3   LAYER   1   ROW     7   COL     4   RATE     0.00000    
 AWU WELL      4   LAYER   1   ROW     7   COL     5   RATE     0.00000    
 AWU WELL      5   LAYER   1   ROW     8   COL     4   RATE     0.00000    
 AWU WELL      6   LAYER   1   ROW     8   COL     5   RATE     0.00000    
 
 

 DIVERSION SEGMENTS       PERIOD    5   STEP   6
 SEGMENT      9   RATE     1.81101    
 
 

 SW IRRIGATION            PERIOD    5   STEP   6
 SEGMENT      9   ROW     6   COL     4   RATE    0.301842    
 SEGMENT      9   ROW     6   COL     5   RATE    0.301842    
 SEGMENT      9   ROW     7   COL     4   RATE    0.301842    
 SEGMENT      9   ROW     7   COL     5   RATE    0.301842    
 SEGMENT      9   ROW     8   COL     4   RATE    0.301842    
 SEGMENT      9   ROW     8   COL     5   RATE    0.301842    
 
 

 GW IRRIGATION            PERIOD    5   STEP   6
 AWU WELL      1   ROW     6   COL     4   RATE     0.00000    
 AWU WELL      2   ROW     6   COL     5   RATE     0.00000    
 AWU WELL      3   ROW     7   COL     4   RATE     0.00000    
 AWU WELL      4   ROW     7   COL     5   RATE     0.00000    
 AWU WELL      5   ROW     8   COL     4   RATE     0.00000    
 AWU WELL      6   ROW     8   COL     5   RATE     0.00000    
 
1
  VOLUMETRIC BUDGET FOR ENTIRE MODEL AT END OF TIME STEP    6, STRESS PERIOD   5
  ------------------------------------------------------------------------------

     CUMULATIVE VOLUMES      L**3       RATES FOR THIS TIME STEP      L**3/T
     ------------------                 ------------------------

           IN:                                      IN:
           ---                                      ---
    AWU WELLS            =     7134365.5000      AWU WELLS            =           0.0000
    DIVERSION SEGMENTS   =     2916207.2500      DIVERSION SEGMENTS   =           1.8111
    GW IRRIGATION        =           0.0000      GW IRRIGATION        =           0.0000
    SW IRRIGATION        =           0.0000      SW IRRIGATION        =           0.0000
    EFFICIENCY FACTOR GW =           0.0000      EFFICIENCY FACTOR GW =           0.0000
    EFFICIENCY FACTOR SW =           0.0000      EFFICIENCY FACTOR SW =           0.0000

                TOTAL IN =    10050573.0000                  TOTAL IN =           1.8111

          OUT:                                     OUT:
          ----                                     ----
    AWU WELLS            =           0.0000      AWU WELLS            =           0.0000
    DIVERSION SEGMENTS   =           0.0000      DIVERSION SEGMENTS   =           0.0000
    GW IRRIGATION        =     7134365.5000      GW IRRIGATION        =           0.0000
    SW IRRIGATION        =     2916207.2500      SW IRRIGATION        =           1.8111
    EFFICIENCY FACTOR GW =           0.0000      EFFICIENCY FACTOR GW =           0.0000
    EFFICIENCY FACTOR SW =           0.0000      EFFICIENCY FACTOR SW =           0.0000

               TOTAL OUT =    10050573.0000                 TOTAL OUT =           1.8111

                IN - OUT =           0.0000                  IN - OUT =           0.0000

     PERCENT DISCREPANCY =           0.00         PERCENT DISCREPANCY =           0.00



1
  VOLUMETRIC BUDGET FOR ENTIRE MODEL AT END OF TIME STEP    6, STRESS PERIOD   5
  ------------------------------------------------------------------------------

     CUMULATIVE VOLUMES      L**3       RATES FOR THIS TIME STEP      L**3/T
     ------------------                 ------------------------

           IN:                                      IN:
           ---                                      ---
             STORAGE     =    12574810.0000               STORAGE     =           1.3317
       CONSTANT HEAD     =           0.0000         CONSTANT HEAD     =           0.0000
     HEAD DEP BOUNDS     =     2428262.0000       HEAD DEP BOUNDS     =           0.2859
      STREAM LEAKAGE     =    98944624.0000        STREAM LEAKAGE     =          13.6007
        UZF RECHARGE     =      919468.7500          UZF RECHARGE     =           0.2322
               GW ET     =           0.0000                 GW ET     =           0.0000
     SURFACE LEAKAGE     =           0.0000       SURFACE LEAKAGE     =           0.0000
    AWU WELLS            =           0.0000      AWU WELLS            =           0.0000

                TOTAL IN =   114867168.0000                  TOTAL IN =          15.4505

          OUT:                                     OUT:
          ----                                     ----
             STORAGE     =    17395580.0000               STORAGE     =           5.8035
       CONSTANT HEAD     =           0.0000         CONSTANT HEAD     =           0.0000
     HEAD DEP BOUNDS     =     2452829.5000       HEAD DEP BOUNDS     =           0.2936
      STREAM LEAKAGE     =    87448496.0000        STREAM LEAKAGE     =           8.8244
        UZF RECHARGE     =           0.0000          UZF RECHARGE     =           0.0000
               GW ET     =      442735.4062                 GW ET     =           0.5291
     SURFACE LEAKAGE     =           0.0000       SURFACE LEAKAGE     =           0.0000
    AWU WELLS            =     7134365.5000      AWU WELLS            =           0.0000

               TOTAL OUT =   114874008.0000                 TOTAL OUT =          15.4506

                IN - OUT =       -6840.0000                  IN - OUT =      -4.2915E-05

     PERCENT DISCREPANCY =          -0.01         PERCENT DISCREPANCY =          -0.00






         TIME SUMMARY AT END OF TIME STEP    6 IN STRESS PERIOD    5
                    SECONDS     MINUTES      HOURS       DAYS        YEARS
                    -----------------------------------------------------------
   TIME STEP LENGTH  87600.      1460.0      24.333      1.0139     2.77588E-03
 STRESS PERIOD TIME 5.25600E+05  8760.0      146.00      6.0833     1.66553E-02
         TOTAL TIME 8.49600E+06 1.41600E+05  2360.0      98.333     0.26922    
1
 
 SOLVING FOR HEAD 
                                                   Max.-Head-Change                         Max.-Flux-Residual
  Residual-Control   Outer-Iter.   Inner-Iter.     Column Row Layer    Maximum-Head-Change  Column Row Layer    Maximum-Flux-Residual          L2-NORM 
          0                 1           2             2   13     1       0.8061846512E-02       2   13    1         0.4572234584E+00      0.1250548469E+01
          0                 2           2             5    6     1      -0.5662491663E-03       5    8    1        -0.3116379109E-01      0.8172468963E-01
          0                 3           1             5    6     1       0.5049838298E-04       5    8    1         0.2804740391E-02      0.6161347641E-02

    ------------------------------------------------
       NWT REQUIRED            3 OUTER ITERATIONS 
       AND A TOTAL OF          5 INNER ITERATIONS.
    ------------------------------------------------

 OUTPUT CONTROL FOR STRESS PERIOD    5   TIME STEP    7
    PRINT BUDGET
    SAVE BUDGET
 UBDSV1 SAVING "         STORAGE" ON UNIT 102 AT TIME STEP     7, STRESS PERIOD   5
 UBDSV2 SAVING "   CONSTANT HEAD" ON UNIT 102 AT TIME STEP     7, STRESS PERIOD   5
 UBDSV1 SAVING "FLOW RIGHT FACE " ON UNIT 102 AT TIME STEP     7, STRESS PERIOD   5
 UBDSV1 SAVING "FLOW FRONT FACE " ON UNIT 102 AT TIME STEP     7, STRESS PERIOD   5

  HEAD DEP BOUNDS   PERIOD    5   STEP     7
 BOUNDARY      1   LAYER   1   ROW    13   COL     1   RATE   -0.293784    
 BOUNDARY      2   LAYER   1   ROW    14   COL     9   RATE    0.285870    



 STREAM LISTING     PERIOD      5   STEP        7

 LAYER ROW COL. STREAM  RCH.  FLOW INTO     FLOW TO   FLOW OUT OF   OVRLND.     DIRECT     STREAM       STREAM     STREAM     STREAM   STREAMBED  STREAMBED
                SEG.NO.  NO.  STRM. RCH.    AQUIFER    STRM. RCH.    RUNOFF     PRECIP       ET          HEAD       DEPTH      WIDTH   CONDCTNC.   GRADIENT

   1    1    1     1     1    7.7000E+01  4.2703E-01   7.6573E+01  0.000E+00  0.000E+00  0.000E+00  1.09476E+03  1.708E+00  2.016E+01  9.070E-02  1.569E+00
   1    2    2     1     2    7.6573E+01  6.6237E-01   7.5911E+01  0.000E+00  0.000E+00  0.000E+00  1.08976E+03  1.706E+00  2.011E+01  1.408E-01  1.569E+00
   1    3    3     1     3    7.5911E+01  5.6590E-01   7.5345E+01  0.000E+00  0.000E+00  0.000E+00  1.08412E+03  1.703E+00  2.006E+01  1.203E-01  1.568E+00
   1    3    4     1     4    7.5345E+01  5.2193E-01   7.4823E+01  0.000E+00  0.000E+00  0.000E+00  1.07911E+03  1.700E+00  2.001E+01  1.110E-01  1.567E+00
   1    4    5     2     1    7.2823E+01  4.1259E-01   7.2410E+01  0.000E+00  0.000E+00  0.000E+00  1.07422E+03  2.290E+00  1.200E+01  7.800E-02  1.763E+00
   1    5    6     2     2    7.2410E+01  3.1696E-01   7.2093E+01  0.000E+00  0.000E+00  0.000E+00  1.06879E+03  2.283E+00  1.200E+01  6.000E-02  1.761E+00
   1    6    6     2     3    7.2093E+01  3.1660E-01   7.1777E+01  0.000E+00  0.000E+00  0.000E+00  1.06407E+03  2.277E+00  1.200E+01  6.000E-02  1.759E+00
   1    7    6     2     4    7.1777E+01  3.1624E-01   7.1460E+01  0.000E+00  0.000E+00  0.000E+00  1.05935E+03  2.271E+00  1.200E+01  6.000E-02  1.757E+00
   1    8    6     2     5    7.1460E+01  3.1588E-01   7.1144E+01  0.000E+00  0.000E+00  0.000E+00  1.05462E+03  2.265E+00  1.200E+01  6.000E-02  1.755E+00
   1    3    5     3     1    2.0000E+00  2.8252E-01   1.7175E+00  0.000E+00  0.000E+00  0.000E+00  1.07555E+03  1.909E+00  9.636E+00  7.227E-02  1.955E+00
   1    3    6     3     2    1.7175E+00  2.4905E-01   1.4684E+00  0.000E+00  0.000E+00  0.000E+00  1.07264E+03  1.727E+00  8.909E+00  6.682E-02  1.864E+00
   1    3    7     3     3    1.4684E+00  1.9718E-01   1.2712E+00  0.000E+00  0.000E+00  0.000E+00  1.06987E+03  1.555E+00  8.218E+00  5.547E-02  1.777E+00
   1    4    8     3     4    1.2712E+00  2.2567E-01   1.0456E+00  0.000E+00  0.000E+00  0.000E+00  1.06682E+03  1.364E+00  7.455E+00  6.709E-02  1.682E+00
   1    5    8     3     5    1.0456E+00  1.5790E-01   8.8768E-01  0.000E+00  0.000E+00  0.000E+00  1.06362E+03  1.164E+00  6.655E+00  4.991E-02  1.582E+00
   1    6    8     3     6    8.8768E-01  5.5980E-02   8.3170E-01  0.000E+00  0.000E+00  0.000E+00  1.06158E+03  1.036E+00  6.145E+00  1.844E-02  1.518E+00
   1    5   10     4     1    1.0000E+01  9.0919E-02   9.9091E+00  0.000E+00  0.000E+00  0.000E+00  1.07836E+03  6.368E-01  1.000E+01  2.500E-02  1.212E+00
   1    5    9     4     2    9.9091E+00  1.8158E-01   9.7275E+00  0.000E+00  0.000E+00  0.000E+00  1.07154E+03  6.315E-01  1.000E+01  5.000E-02  1.211E+00
   1    6    8     4     3    9.7275E+00  1.2689E-01   9.6006E+00  0.000E+00  0.000E+00  0.000E+00  1.06381E+03  6.256E-01  1.000E+01  3.500E-02  1.209E+00
   1    6    8     5     1    1.0432E+01  2.2686E-01   1.0205E+01  0.000E+00  0.000E+00  0.000E+00  1.05868E+03  6.790E-01  1.542E+01  6.166E-02  1.226E+00
   1    7    7     5     2    1.0205E+01  2.7894E-01   9.9265E+00  0.000E+00  0.000E+00  0.000E+00  1.05417E+03  6.732E-01  1.519E+01  7.594E-02  1.224E+00
   1    8    7     5     3    9.9265E+00  1.9221E-01   9.7343E+00  0.000E+00  0.000E+00  0.000E+00  1.04992E+03  6.676E-01  1.497E+01  5.241E-02  1.223E+00
   1    8    6     5     4    9.7343E+00  1.3577E-01   9.5985E+00  0.000E+00  0.000E+00  0.000E+00  1.04691E+03  6.637E-01  1.482E+01  3.706E-02  1.221E+00
   1    9    6     6     1    8.0743E+01  3.2786E-01   8.0415E+01  0.000E+00  0.000E+00  0.000E+00  1.04519E+03  2.464E+00  1.200E+01  6.000E-02  1.821E+00
   1   10    7     6     2    8.0415E+01  3.2750E-01   8.0088E+01  0.000E+00  0.000E+00  0.000E+00  1.04064E+03  2.458E+00  1.200E+01  6.000E-02  1.819E+00
   1   11    7     6     3    8.0088E+01  3.2714E-01   7.9761E+01  0.000E+00  0.000E+00  0.000E+00  1.03609E+03  2.452E+00  1.200E+01  6.000E-02  1.817E+00
   1   12    7     6     4    7.9761E+01  3.2678E-01   7.9434E+01  0.000E+00  0.000E+00  0.000E+00  1.03154E+03  2.446E+00  1.200E+01  6.000E-02  1.815E+00
   1   13    7     6     5    7.9434E+01  2.9821E-02   7.9404E+01  0.000E+00  0.000E+00  0.000E+00  1.02835E+03  2.443E+00  1.200E+01  2.400E-02  4.142E-01
   1   14    9     7     1    1.5000E+02  1.3375E+00   1.4866E+02  0.000E+00  0.000E+00  0.000E+00  1.03987E+03  2.288E+00  5.529E+01  5.593E-01  7.971E-01
   1   13    8     7     2    1.4866E+02  1.8331E+00   1.4683E+02  0.000E+00  0.000E+00  0.000E+00  1.03478E+03  2.279E+00  5.526E+01  6.148E-01  9.939E-01
   1   13    7     7     3    1.4683E+02  1.4410E+00   1.4539E+02  0.000E+00  0.000E+00  0.000E+00  1.02969E+03  2.271E+00  5.522E+01  5.585E-01  8.601E-01
   1   13    6     8     1    2.2479E+02  1.1227E+00   2.2367E+02  0.000E+00  0.000E+00  0.000E+00  1.02515E+03  3.275E+00  4.749E+01  4.839E-01  7.733E-01
   1   13    5     8     2    2.2367E+02  2.8975E-01   2.2338E+02  0.000E+00  0.000E+00  0.000E+00  1.01890E+03  3.271E+00  4.743E+01  4.834E-01  1.998E-01
   1   13    4     8     3    2.2338E+02 -1.9548E+00   2.2533E+02  0.000E+00  0.000E+00  0.000E+00  1.01265E+03  3.276E+00  4.750E+01  4.840E+00 -1.346E-01
   1   13    3     8     4    2.2533E+02 -3.1887E+00   2.2852E+02  0.000E+00  0.000E+00  0.000E+00  1.00641E+03  3.290E+00  4.770E+01  4.861E+00 -2.186E-01
   1   13    2     8     5    2.2852E+02 -2.0613E+00   2.3058E+02  0.000E+00  0.000E+00  0.000E+00  1.00018E+03  3.304E+00  4.791E+01  4.882E+00 -1.407E-01
   1   13    1     8     6    2.3058E+02 -1.5929E+00   2.3218E+02  0.000E+00  0.000E+00  0.000E+00  9.95189E+02  3.314E+00  4.805E+01  2.938E+00 -1.807E-01
   1    6    8     9     1    0.0000E+00  0.0000E+00   0.0000E+00  0.000E+00  0.000E+00  0.000E+00  1.07850E+03  0.000E+00  4.000E+00  0.000E+00  1.000E+00



 UBDSV3 SAVING "           GW ET" ON UNIT  61 AT TIME STEP     7, STRESS PERIOD   5
 UBDSV3 SAVING "    UZF RECHARGE" ON UNIT  61 AT TIME STEP     7, STRESS PERIOD   5
 UBDSV3 SAVING " SURFACE LEAKAGE" ON UNIT  61 AT TIME STEP     7, STRESS PERIOD   5
 UBDSV3 SAVING "       HORT+DUNN" ON UNIT  61 AT TIME STEP     7, STRESS PERIOD   5
 UBDSV3 SAVING "  STORAGE CHANGE" ON UNIT  61 AT TIME STEP     7, STRESS PERIOD   5


UNSATURATED ZONE PACKAGE VOLUMETRIC BUDGET FOR  TIME STEP     7 STRESS PERIOD    5
  ------------------------------------------------------------------------------



     CUMULATIVE VOLUMES      L**3       RATES FOR THIS TIME STEP      L**3/T
     ------------------                 ------------------------

           IN:                                      IN:
           ---                                      ---
        INFILTRATION =    10123796.7305          INFILTRATION =       0.0000E+00

          OUT:                                     OUT:
          ----                                     ----
              UZF ET =      112637.0852                UZF ET =           0.2279
        UZF RECHARGE =      939953.6047          UZF RECHARGE =           0.2338

            IN - OUT =     9071206.0405              IN - OUT =          -0.4617

          STORAGE:                                 STORAGE:
          --------                                 --------
      STORAGE CHANGE =     9072183.9516        STORAGE CHANGE =          -0.4571

 PERCENT DISCREPANCY IS DIFFERENCE BETWEEN IN-OUT MINUS CHANGE IN STORAGE
 DIVIDED BY THE AVERAGE OF IN AND OUT TIMES 100

 PERCENT DISCREPANCY =          -0.00     PERCENT DISCREPANCY =          -1.00






 

 AWU WELLS                PERIOD    5   STEP   7
 AWU WELL      1   LAYER   1   ROW     6   COL     4   RATE     0.00000    
 AWU WELL      2   LAYER   1   ROW     6   COL     5   RATE     0.00000    
 AWU WELL      3   LAYER   1   ROW     7   COL     4   RATE     0.00000    
 AWU WELL      4   LAYER   1   ROW     7   COL     5   RATE     0.00000    
 AWU WELL      5   LAYER   1   ROW     8   COL     4   RATE     0.00000    
 AWU WELL      6   LAYER   1   ROW     8   COL     5   RATE     0.00000    
 
 

 DIVERSION SEGMENTS       PERIOD    5   STEP   7
 SEGMENT      9   RATE     0.00000    
 
 

 SW IRRIGATION            PERIOD    5   STEP   7
 SEGMENT      9   ROW     6   COL     4   RATE     0.00000    
 SEGMENT      9   ROW     6   COL     5   RATE     0.00000    
 SEGMENT      9   ROW     7   COL     4   RATE     0.00000    
 SEGMENT      9   ROW     7   COL     5   RATE     0.00000    
 SEGMENT      9   ROW     8   COL     4   RATE     0.00000    
 SEGMENT      9   ROW     8   COL     5   RATE     0.00000    
 
 

 GW IRRIGATION            PERIOD    5   STEP   7
 AWU WELL      1   ROW     6   COL     4   RATE     0.00000    
 AWU WELL      2   ROW     6   COL     5   RATE     0.00000    
 AWU WELL      3   ROW     7   COL     4   RATE     0.00000    
 AWU WELL      4   ROW     7   COL     5   RATE     0.00000    
 AWU WELL      5   ROW     8   COL     4   RATE     0.00000    
 AWU WELL      6   ROW     8   COL     5   RATE     0.00000    
 
1
  VOLUMETRIC BUDGET FOR ENTIRE MODEL AT END OF TIME STEP    7, STRESS PERIOD   5
  ------------------------------------------------------------------------------

     CUMULATIVE VOLUMES      L**3       RATES FOR THIS TIME STEP      L**3/T
     ------------------                 ------------------------

           IN:                                      IN:
           ---                                      ---
    AWU WELLS            =     7134365.5000      AWU WELLS            =           0.0000
    DIVERSION SEGMENTS   =     2916207.2500      DIVERSION SEGMENTS   =           0.0000
    GW IRRIGATION        =           0.0000      GW IRRIGATION        =           0.0000
    SW IRRIGATION        =           0.0000      SW IRRIGATION        =           0.0000
    EFFICIENCY FACTOR GW =           0.0000      EFFICIENCY FACTOR GW =           0.0000
    EFFICIENCY FACTOR SW =           0.0000      EFFICIENCY FACTOR SW =           0.0000

                TOTAL IN =    10050573.0000                  TOTAL IN =           0.0000

          OUT:                                     OUT:
          ----                                     ----
    AWU WELLS            =           0.0000      AWU WELLS            =           0.0000
    DIVERSION SEGMENTS   =           0.0000      DIVERSION SEGMENTS   =           0.0000
    GW IRRIGATION        =     7134365.5000      GW IRRIGATION        =           0.0000
    SW IRRIGATION        =     2916207.2500      SW IRRIGATION        =           0.0000
    EFFICIENCY FACTOR GW =           0.0000      EFFICIENCY FACTOR GW =           0.0000
    EFFICIENCY FACTOR SW =           0.0000      EFFICIENCY FACTOR SW =           0.0000

               TOTAL OUT =    10050573.0000                 TOTAL OUT =           0.0000

                IN - OUT =           0.0000                  IN - OUT =           0.0000

     PERCENT DISCREPANCY =           0.00         PERCENT DISCREPANCY =           0.00



1
  VOLUMETRIC BUDGET FOR ENTIRE MODEL AT END OF TIME STEP    7, STRESS PERIOD   5
  ------------------------------------------------------------------------------

     CUMULATIVE VOLUMES      L**3       RATES FOR THIS TIME STEP      L**3/T
     ------------------                 ------------------------

           IN:                                      IN:
           ---                                      ---
             STORAGE     =    12686511.0000               STORAGE     =           1.2751
       CONSTANT HEAD     =           0.0000         CONSTANT HEAD     =           0.0000
     HEAD DEP BOUNDS     =     2453304.2500       HEAD DEP BOUNDS     =           0.2859
      STREAM LEAKAGE     =   100137744.0000        STREAM LEAKAGE     =          13.6201
        UZF RECHARGE     =      939953.6875          UZF RECHARGE     =           0.2338
               GW ET     =           0.0000                 GW ET     =           0.0000
     SURFACE LEAKAGE     =           0.0000       SURFACE LEAKAGE     =           0.0000
    AWU WELLS            =           0.0000      AWU WELLS            =           0.0000

                TOTAL IN =   116217512.0000                  TOTAL IN =          15.4149

          OUT:                                     OUT:
          ----                                     ----
             STORAGE     =    17903110.0000               STORAGE     =           5.7937
       CONSTANT HEAD     =           0.0000         CONSTANT HEAD     =           0.0000
     HEAD DEP BOUNDS     =     2478565.0000       HEAD DEP BOUNDS     =           0.2938
      STREAM LEAKAGE     =    88219184.0000        STREAM LEAKAGE     =           8.7978
        UZF RECHARGE     =           0.0000          UZF RECHARGE     =           0.0000
               GW ET     =      489152.3125                 GW ET     =           0.5299
     SURFACE LEAKAGE     =           0.0000       SURFACE LEAKAGE     =           0.0000
    AWU WELLS            =     7134365.5000      AWU WELLS            =           0.0000

               TOTAL OUT =   116224384.0000                 TOTAL OUT =          15.4152

                IN - OUT =       -6872.0000                  IN - OUT =      -2.3270E-04

     PERCENT DISCREPANCY =          -0.01         PERCENT DISCREPANCY =          -0.00






         TIME SUMMARY AT END OF TIME STEP    7 IN STRESS PERIOD    5
                    SECONDS     MINUTES      HOURS       DAYS        YEARS
                    -----------------------------------------------------------
   TIME STEP LENGTH  87600.      1460.0      24.333      1.0139     2.77588E-03
 STRESS PERIOD TIME 6.13200E+05  10220.      170.33      7.0972     1.94311E-02
         TOTAL TIME 8.58360E+06 1.43060E+05  2384.3      99.347     0.27200    
1
 
 SOLVING FOR HEAD 
                                                   Max.-Head-Change                         Max.-Flux-Residual
  Residual-Control   Outer-Iter.   Inner-Iter.     Column Row Layer    Maximum-Head-Change  Column Row Layer    Maximum-Flux-Residual          L2-NORM 
          0                 1           2             2    2     1       0.7550444529E-02       2   13    1         0.4186322540E+00      0.1193872456E+01
          0                 2           2             5    6     1      -0.5407702478E-03       5    6    1        -0.2972199996E-01      0.7812508814E-01
          0                 3           1             5    6     1       0.4822619534E-04       5    6    1         0.2674980280E-02      0.5900202730E-02

    ------------------------------------------------
       NWT REQUIRED            3 OUTER ITERATIONS 
       AND A TOTAL OF          5 INNER ITERATIONS.
    ------------------------------------------------

 OUTPUT CONTROL FOR STRESS PERIOD    5   TIME STEP    8
    PRINT BUDGET
    SAVE BUDGET
 UBDSV1 SAVING "         STORAGE" ON UNIT 102 AT TIME STEP     8, STRESS PERIOD   5
 UBDSV2 SAVING "   CONSTANT HEAD" ON UNIT 102 AT TIME STEP     8, STRESS PERIOD   5
 UBDSV1 SAVING "FLOW RIGHT FACE " ON UNIT 102 AT TIME STEP     8, STRESS PERIOD   5
 UBDSV1 SAVING "FLOW FRONT FACE " ON UNIT 102 AT TIME STEP     8, STRESS PERIOD   5

  HEAD DEP BOUNDS   PERIOD    5   STEP     8
 BOUNDARY      1   LAYER   1   ROW    13   COL     1   RATE   -0.293973    
 BOUNDARY      2   LAYER   1   ROW    14   COL     9   RATE    0.285871    



 STREAM LISTING     PERIOD      5   STEP        8

 LAYER ROW COL. STREAM  RCH.  FLOW INTO     FLOW TO   FLOW OUT OF   OVRLND.     DIRECT     STREAM       STREAM     STREAM     STREAM   STREAMBED  STREAMBED
                SEG.NO.  NO.  STRM. RCH.    AQUIFER    STRM. RCH.    RUNOFF     PRECIP       ET          HEAD       DEPTH      WIDTH   CONDCTNC.   GRADIENT

   1    1    1     1     1    7.7000E+01  4.2703E-01   7.6573E+01  0.000E+00  0.000E+00  0.000E+00  1.09476E+03  1.708E+00  2.016E+01  9.070E-02  1.569E+00
   1    2    2     1     2    7.6573E+01  6.6237E-01   7.5911E+01  0.000E+00  0.000E+00  0.000E+00  1.08976E+03  1.706E+00  2.011E+01  1.408E-01  1.569E+00
   1    3    3     1     3    7.5911E+01  5.6590E-01   7.5345E+01  0.000E+00  0.000E+00  0.000E+00  1.08412E+03  1.703E+00  2.006E+01  1.203E-01  1.568E+00
   1    3    4     1     4    7.5345E+01  5.2193E-01   7.4823E+01  0.000E+00  0.000E+00  0.000E+00  1.07911E+03  1.700E+00  2.001E+01  1.110E-01  1.567E+00
   1    4    5     2     1    7.2823E+01  4.1259E-01   7.2410E+01  0.000E+00  0.000E+00  0.000E+00  1.07422E+03  2.290E+00  1.200E+01  7.800E-02  1.763E+00
   1    5    6     2     2    7.2410E+01  3.1696E-01   7.2093E+01  0.000E+00  0.000E+00  0.000E+00  1.06879E+03  2.283E+00  1.200E+01  6.000E-02  1.761E+00
   1    6    6     2     3    7.2093E+01  3.1660E-01   7.1777E+01  0.000E+00  0.000E+00  0.000E+00  1.06407E+03  2.277E+00  1.200E+01  6.000E-02  1.759E+00
   1    7    6     2     4    7.1777E+01  3.1624E-01   7.1460E+01  0.000E+00  0.000E+00  0.000E+00  1.05935E+03  2.271E+00  1.200E+01  6.000E-02  1.757E+00
   1    8    6     2     5    7.1460E+01  3.1588E-01   7.1144E+01  0.000E+00  0.000E+00  0.000E+00  1.05462E+03  2.265E+00  1.200E+01  6.000E-02  1.755E+00
   1    3    5     3     1    2.0000E+00  2.8252E-01   1.7175E+00  0.000E+00  0.000E+00  0.000E+00  1.07555E+03  1.909E+00  9.636E+00  7.227E-02  1.955E+00
   1    3    6     3     2    1.7175E+00  2.4905E-01   1.4684E+00  0.000E+00  0.000E+00  0.000E+00  1.07264E+03  1.727E+00  8.909E+00  6.682E-02  1.864E+00
   1    3    7     3     3    1.4684E+00  1.9718E-01   1.2712E+00  0.000E+00  0.000E+00  0.000E+00  1.06987E+03  1.555E+00  8.218E+00  5.547E-02  1.777E+00
   1    4    8     3     4    1.2712E+00  2.2567E-01   1.0456E+00  0.000E+00  0.000E+00  0.000E+00  1.06682E+03  1.364E+00  7.455E+00  6.709E-02  1.682E+00
   1    5    8     3     5    1.0456E+00  1.5790E-01   8.8768E-01  0.000E+00  0.000E+00  0.000E+00  1.06362E+03  1.164E+00  6.655E+00  4.991E-02  1.582E+00
   1    6    8     3     6    8.8768E-01  5.5980E-02   8.3170E-01  0.000E+00  0.000E+00  0.000E+00  1.06158E+03  1.036E+00  6.145E+00  1.844E-02  1.518E+00
   1    5   10     4     1    1.0000E+01  9.0919E-02   9.9091E+00  0.000E+00  0.000E+00  0.000E+00  1.07836E+03  6.368E-01  1.000E+01  2.500E-02  1.212E+00
   1    5    9     4     2    9.9091E+00  1.8158E-01   9.7275E+00  0.000E+00  0.000E+00  0.000E+00  1.07154E+03  6.315E-01  1.000E+01  5.000E-02  1.211E+00
   1    6    8     4     3    9.7275E+00  1.2689E-01   9.6006E+00  0.000E+00  0.000E+00  0.000E+00  1.06381E+03  6.256E-01  1.000E+01  3.500E-02  1.209E+00
   1    6    8     5     1    1.0432E+01  2.2686E-01   1.0205E+01  0.000E+00  0.000E+00  0.000E+00  1.05868E+03  6.790E-01  1.542E+01  6.166E-02  1.226E+00
   1    7    7     5     2    1.0205E+01  2.7894E-01   9.9265E+00  0.000E+00  0.000E+00  0.000E+00  1.05417E+03  6.732E-01  1.519E+01  7.594E-02  1.224E+00
   1    8    7     5     3    9.9265E+00  1.9221E-01   9.7343E+00  0.000E+00  0.000E+00  0.000E+00  1.04992E+03  6.676E-01  1.497E+01  5.241E-02  1.223E+00
   1    8    6     5     4    9.7343E+00  1.3577E-01   9.5985E+00  0.000E+00  0.000E+00  0.000E+00  1.04691E+03  6.637E-01  1.482E+01  3.706E-02  1.221E+00
   1    9    6     6     1    8.0743E+01  3.2786E-01   8.0415E+01  0.000E+00  0.000E+00  0.000E+00  1.04519E+03  2.464E+00  1.200E+01  6.000E-02  1.821E+00
   1   10    7     6     2    8.0415E+01  3.2750E-01   8.0088E+01  0.000E+00  0.000E+00  0.000E+00  1.04064E+03  2.458E+00  1.200E+01  6.000E-02  1.819E+00
   1   11    7     6     3    8.0088E+01  3.2714E-01   7.9761E+01  0.000E+00  0.000E+00  0.000E+00  1.03609E+03  2.452E+00  1.200E+01  6.000E-02  1.817E+00
   1   12    7     6     4    7.9761E+01  3.2678E-01   7.9434E+01  0.000E+00  0.000E+00  0.000E+00  1.03154E+03  2.446E+00  1.200E+01  6.000E-02  1.815E+00
   1   13    7     6     5    7.9434E+01  2.9797E-02   7.9404E+01  0.000E+00  0.000E+00  0.000E+00  1.02835E+03  2.443E+00  1.200E+01  2.400E-02  4.139E-01
   1   14    9     7     1    1.5000E+02  1.3375E+00   1.4866E+02  0.000E+00  0.000E+00  0.000E+00  1.03987E+03  2.288E+00  5.529E+01  5.593E-01  7.971E-01
   1   13    8     7     2    1.4866E+02  1.8329E+00   1.4683E+02  0.000E+00  0.000E+00  0.000E+00  1.03478E+03  2.279E+00  5.526E+01  6.148E-01  9.938E-01
   1   13    7     7     3    1.4683E+02  1.4405E+00   1.4539E+02  0.000E+00  0.000E+00  0.000E+00  1.02969E+03  2.271E+00  5.522E+01  5.585E-01  8.598E-01
   1   13    6     8     1    2.2479E+02  1.1213E+00   2.2367E+02  0.000E+00  0.000E+00  0.000E+00  1.02515E+03  3.275E+00  4.749E+01  4.839E-01  7.723E-01
   1   13    5     8     2    2.2367E+02  2.8874E-01   2.2338E+02  0.000E+00  0.000E+00  0.000E+00  1.01890E+03  3.271E+00  4.743E+01  4.834E-01  1.991E-01
   1   13    4     8     3    2.2338E+02 -1.9837E+00   2.2537E+02  0.000E+00  0.000E+00  0.000E+00  1.01265E+03  3.276E+00  4.750E+01  4.841E+00 -1.366E-01
   1   13    3     8     4    2.2537E+02 -3.2164E+00   2.2858E+02  0.000E+00  0.000E+00  0.000E+00  1.00642E+03  3.290E+00  4.771E+01  4.862E+00 -2.205E-01
   1   13    2     8     5    2.2858E+02 -2.0940E+00   2.3068E+02  0.000E+00  0.000E+00  0.000E+00  1.00018E+03  3.305E+00  4.792E+01  4.883E+00 -1.430E-01
   1   13    1     8     6    2.3068E+02 -1.6062E+00   2.3228E+02  0.000E+00  0.000E+00  0.000E+00  9.95190E+02  3.315E+00  4.806E+01  2.939E+00 -1.822E-01
   1    6    8     9     1    0.0000E+00  0.0000E+00   0.0000E+00  0.000E+00  0.000E+00  0.000E+00  1.07850E+03  0.000E+00  4.000E+00  0.000E+00  1.000E+00



 UBDSV3 SAVING "           GW ET" ON UNIT  61 AT TIME STEP     8, STRESS PERIOD   5
 UBDSV3 SAVING "    UZF RECHARGE" ON UNIT  61 AT TIME STEP     8, STRESS PERIOD   5
 UBDSV3 SAVING " SURFACE LEAKAGE" ON UNIT  61 AT TIME STEP     8, STRESS PERIOD   5
 UBDSV3 SAVING "       HORT+DUNN" ON UNIT  61 AT TIME STEP     8, STRESS PERIOD   5
 UBDSV3 SAVING "  STORAGE CHANGE" ON UNIT  61 AT TIME STEP     8, STRESS PERIOD   5


UNSATURATED ZONE PACKAGE VOLUMETRIC BUDGET FOR  TIME STEP     8 STRESS PERIOD    5
  ------------------------------------------------------------------------------



     CUMULATIVE VOLUMES      L**3       RATES FOR THIS TIME STEP      L**3/T
     ------------------                 ------------------------

           IN:                                      IN:
           ---                                      ---
        INFILTRATION =    10123796.7305          INFILTRATION =       0.0000E+00

          OUT:                                     OUT:
          ----                                     ----
              UZF ET =      133318.7556                UZF ET =           0.2361
        UZF RECHARGE =      959884.0421          UZF RECHARGE =           0.2275

            IN - OUT =     9030593.9328              IN - OUT =          -0.4636

          STORAGE:                                 STORAGE:
          --------                                 --------
      STORAGE CHANGE =     9031573.4972        STORAGE CHANGE =          -0.4636

 PERCENT DISCREPANCY IS DIFFERENCE BETWEEN IN-OUT MINUS CHANGE IN STORAGE
 DIVIDED BY THE AVERAGE OF IN AND OUT TIMES 100

 PERCENT DISCREPANCY =          -0.00     PERCENT DISCREPANCY =          -0.00






 

 AWU WELLS                PERIOD    5   STEP   8
 AWU WELL      1   LAYER   1   ROW     6   COL     4   RATE     0.00000    
 AWU WELL      2   LAYER   1   ROW     6   COL     5   RATE     0.00000    
 AWU WELL      3   LAYER   1   ROW     7   COL     4   RATE     0.00000    
 AWU WELL      4   LAYER   1   ROW     7   COL     5   RATE     0.00000    
 AWU WELL      5   LAYER   1   ROW     8   COL     4   RATE     0.00000    
 AWU WELL      6   LAYER   1   ROW     8   COL     5   RATE     0.00000    
 
 

 DIVERSION SEGMENTS       PERIOD    5   STEP   8
 SEGMENT      9   RATE     0.00000    
 
 

 SW IRRIGATION            PERIOD    5   STEP   8
 SEGMENT      9   ROW     6   COL     4   RATE     0.00000    
 SEGMENT      9   ROW     6   COL     5   RATE     0.00000    
 SEGMENT      9   ROW     7   COL     4   RATE     0.00000    
 SEGMENT      9   ROW     7   COL     5   RATE     0.00000    
 SEGMENT      9   ROW     8   COL     4   RATE     0.00000    
 SEGMENT      9   ROW     8   COL     5   RATE     0.00000    
 
 

 GW IRRIGATION            PERIOD    5   STEP   8
 AWU WELL      1   ROW     6   COL     4   RATE     0.00000    
 AWU WELL      2   ROW     6   COL     5   RATE     0.00000    
 AWU WELL      3   ROW     7   COL     4   RATE     0.00000    
 AWU WELL      4   ROW     7   COL     5   RATE     0.00000    
 AWU WELL      5   ROW     8   COL     4   RATE     0.00000    
 AWU WELL      6   ROW     8   COL     5   RATE     0.00000    
 
1
  VOLUMETRIC BUDGET FOR ENTIRE MODEL AT END OF TIME STEP    8, STRESS PERIOD   5
  ------------------------------------------------------------------------------

     CUMULATIVE VOLUMES      L**3       RATES FOR THIS TIME STEP      L**3/T
     ------------------                 ------------------------

           IN:                                      IN:
           ---                                      ---
    AWU WELLS            =     7134365.5000      AWU WELLS            =           0.0000
    DIVERSION SEGMENTS   =     2916207.2500      DIVERSION SEGMENTS   =           0.0000
    GW IRRIGATION        =           0.0000      GW IRRIGATION        =           0.0000
    SW IRRIGATION        =           0.0000      SW IRRIGATION        =           0.0000
    EFFICIENCY FACTOR GW =           0.0000      EFFICIENCY FACTOR GW =           0.0000
    EFFICIENCY FACTOR SW =           0.0000      EFFICIENCY FACTOR SW =           0.0000

                TOTAL IN =    10050573.0000                  TOTAL IN =           0.0000

          OUT:                                     OUT:
          ----                                     ----
    AWU WELLS            =           0.0000      AWU WELLS            =           0.0000
    DIVERSION SEGMENTS   =           0.0000      DIVERSION SEGMENTS   =           0.0000
    GW IRRIGATION        =     7134365.5000      GW IRRIGATION        =           0.0000
    SW IRRIGATION        =     2916207.2500      SW IRRIGATION        =           0.0000
    EFFICIENCY FACTOR GW =           0.0000      EFFICIENCY FACTOR GW =           0.0000
    EFFICIENCY FACTOR SW =           0.0000      EFFICIENCY FACTOR SW =           0.0000

               TOTAL OUT =    10050573.0000                 TOTAL OUT =           0.0000

                IN - OUT =           0.0000                  IN - OUT =           0.0000

     PERCENT DISCREPANCY =           0.00         PERCENT DISCREPANCY =           0.00



1
  VOLUMETRIC BUDGET FOR ENTIRE MODEL AT END OF TIME STEP    8, STRESS PERIOD   5
  ------------------------------------------------------------------------------

     CUMULATIVE VOLUMES      L**3       RATES FOR THIS TIME STEP      L**3/T
     ------------------                 ------------------------

           IN:                                      IN:
           ---                                      ---
             STORAGE     =    12793427.0000               STORAGE     =           1.2205
       CONSTANT HEAD     =           0.0000         CONSTANT HEAD     =           0.0000
     HEAD DEP BOUNDS     =     2478346.5000       HEAD DEP BOUNDS     =           0.2859
      STREAM LEAKAGE     =   101330584.0000        STREAM LEAKAGE     =          13.6169
        UZF RECHARGE     =      959884.1250          UZF RECHARGE     =           0.2275
               GW ET     =           0.0000                 GW ET     =           0.0000
     SURFACE LEAKAGE     =           0.0000       SURFACE LEAKAGE     =           0.0000
    AWU WELLS            =           0.0000      AWU WELLS            =           0.0000

                TOTAL IN =   117562248.0000                  TOTAL IN =          15.3508

          OUT:                                     OUT:
          ----                                     ----
             STORAGE     =    18395954.0000               STORAGE     =           5.6261
       CONSTANT HEAD     =           0.0000         CONSTANT HEAD     =           0.0000
     HEAD DEP BOUNDS     =     2504317.0000       HEAD DEP BOUNDS     =           0.2940
      STREAM LEAKAGE     =    88998856.0000        STREAM LEAKAGE     =           8.9004
        UZF RECHARGE     =           0.0000          UZF RECHARGE     =           0.0000
               GW ET     =      535634.8750                 GW ET     =           0.5306
     SURFACE LEAKAGE     =           0.0000       SURFACE LEAKAGE     =           0.0000
    AWU WELLS            =     7134365.5000      AWU WELLS            =           0.0000

               TOTAL OUT =   117569128.0000                 TOTAL OUT =          15.3511

                IN - OUT =       -6880.0000                  IN - OUT =      -2.3937E-04

     PERCENT DISCREPANCY =          -0.01         PERCENT DISCREPANCY =          -0.00






         TIME SUMMARY AT END OF TIME STEP    8 IN STRESS PERIOD    5
                    SECONDS     MINUTES      HOURS       DAYS        YEARS
                    -----------------------------------------------------------
   TIME STEP LENGTH  87600.      1460.0      24.333      1.0139     2.77588E-03
 STRESS PERIOD TIME 7.00800E+05  11680.      194.67      8.1111     2.22070E-02
         TOTAL TIME 8.67120E+06 1.44520E+05  2408.7      100.36     0.27477    
1
 
 SOLVING FOR HEAD 
                                                   Max.-Head-Change                         Max.-Flux-Residual
  Residual-Control   Outer-Iter.   Inner-Iter.     Column Row Layer    Maximum-Head-Change  Column Row Layer    Maximum-Flux-Residual          L2-NORM 
          0                 1           2             2    2     1       0.7503190071E-02       2    2    1         0.3919255332E+00      0.1143272956E+01
          0                 2           2             5    6     1      -0.5169554077E-03       5    6    1        -0.2838608985E-01      0.7484247070E-01
          0                 3           1             5    6     1       0.4610240372E-04       5    6    1         0.2554748361E-02      0.5657016802E-02

    ------------------------------------------------
       NWT REQUIRED            3 OUTER ITERATIONS 
       AND A TOTAL OF          5 INNER ITERATIONS.
    ------------------------------------------------

 OUTPUT CONTROL FOR STRESS PERIOD    5   TIME STEP    9
    PRINT BUDGET
    SAVE BUDGET
 UBDSV1 SAVING "         STORAGE" ON UNIT 102 AT TIME STEP     9, STRESS PERIOD   5
 UBDSV2 SAVING "   CONSTANT HEAD" ON UNIT 102 AT TIME STEP     9, STRESS PERIOD   5
 UBDSV1 SAVING "FLOW RIGHT FACE " ON UNIT 102 AT TIME STEP     9, STRESS PERIOD   5
 UBDSV1 SAVING "FLOW FRONT FACE " ON UNIT 102 AT TIME STEP     9, STRESS PERIOD   5

  HEAD DEP BOUNDS   PERIOD    5   STEP     9
 BOUNDARY      1   LAYER   1   ROW    13   COL     1   RATE   -0.294152    
 BOUNDARY      2   LAYER   1   ROW    14   COL     9   RATE    0.285872    



 STREAM LISTING     PERIOD      5   STEP        9

 LAYER ROW COL. STREAM  RCH.  FLOW INTO     FLOW TO   FLOW OUT OF   OVRLND.     DIRECT     STREAM       STREAM     STREAM     STREAM   STREAMBED  STREAMBED
                SEG.NO.  NO.  STRM. RCH.    AQUIFER    STRM. RCH.    RUNOFF     PRECIP       ET          HEAD       DEPTH      WIDTH   CONDCTNC.   GRADIENT

   1    1    1     1     1    7.7000E+01  4.2703E-01   7.6573E+01  0.000E+00  0.000E+00  0.000E+00  1.09476E+03  1.708E+00  2.016E+01  9.070E-02  1.569E+00
   1    2    2     1     2    7.6573E+01  6.6237E-01   7.5911E+01  0.000E+00  0.000E+00  0.000E+00  1.08976E+03  1.706E+00  2.011E+01  1.408E-01  1.569E+00
   1    3    3     1     3    7.5911E+01  5.6590E-01   7.5345E+01  0.000E+00  0.000E+00  0.000E+00  1.08412E+03  1.703E+00  2.006E+01  1.203E-01  1.568E+00
   1    3    4     1     4    7.5345E+01  5.2193E-01   7.4823E+01  0.000E+00  0.000E+00  0.000E+00  1.07911E+03  1.700E+00  2.001E+01  1.110E-01  1.567E+00
   1    4    5     2     1    7.2823E+01  4.1259E-01   7.2410E+01  0.000E+00  0.000E+00  0.000E+00  1.07422E+03  2.290E+00  1.200E+01  7.800E-02  1.763E+00
   1    5    6     2     2    7.2410E+01  3.1696E-01   7.2093E+01  0.000E+00  0.000E+00  0.000E+00  1.06879E+03  2.283E+00  1.200E+01  6.000E-02  1.761E+00
   1    6    6     2     3    7.2093E+01  3.1660E-01   7.1777E+01  0.000E+00  0.000E+00  0.000E+00  1.06407E+03  2.277E+00  1.200E+01  6.000E-02  1.759E+00
   1    7    6     2     4    7.1777E+01  3.1624E-01   7.1460E+01  0.000E+00  0.000E+00  0.000E+00  1.05935E+03  2.271E+00  1.200E+01  6.000E-02  1.757E+00
   1    8    6     2     5    7.1460E+01  3.1588E-01   7.1144E+01  0.000E+00  0.000E+00  0.000E+00  1.05462E+03  2.265E+00  1.200E+01  6.000E-02  1.755E+00
   1    3    5     3     1    2.0000E+00  2.8252E-01   1.7175E+00  0.000E+00  0.000E+00  0.000E+00  1.07555E+03  1.909E+00  9.636E+00  7.227E-02  1.955E+00
   1    3    6     3     2    1.7175E+00  2.4905E-01   1.4684E+00  0.000E+00  0.000E+00  0.000E+00  1.07264E+03  1.727E+00  8.909E+00  6.682E-02  1.864E+00
   1    3    7     3     3    1.4684E+00  1.9718E-01   1.2712E+00  0.000E+00  0.000E+00  0.000E+00  1.06987E+03  1.555E+00  8.218E+00  5.547E-02  1.777E+00
   1    4    8     3     4    1.2712E+00  2.2567E-01   1.0456E+00  0.000E+00  0.000E+00  0.000E+00  1.06682E+03  1.364E+00  7.455E+00  6.709E-02  1.682E+00
   1    5    8     3     5    1.0456E+00  1.5790E-01   8.8768E-01  0.000E+00  0.000E+00  0.000E+00  1.06362E+03  1.164E+00  6.655E+00  4.991E-02  1.582E+00
   1    6    8     3     6    8.8768E-01  5.5980E-02   8.3170E-01  0.000E+00  0.000E+00  0.000E+00  1.06158E+03  1.036E+00  6.145E+00  1.844E-02  1.518E+00
   1    5   10     4     1    1.0000E+01  9.0919E-02   9.9091E+00  0.000E+00  0.000E+00  0.000E+00  1.07836E+03  6.368E-01  1.000E+01  2.500E-02  1.212E+00
   1    5    9     4     2    9.9091E+00  1.8158E-01   9.7275E+00  0.000E+00  0.000E+00  0.000E+00  1.07154E+03  6.315E-01  1.000E+01  5.000E-02  1.211E+00
   1    6    8     4     3    9.7275E+00  1.2689E-01   9.6006E+00  0.000E+00  0.000E+00  0.000E+00  1.06381E+03  6.256E-01  1.000E+01  3.500E-02  1.209E+00
   1    6    8     5     1    1.0432E+01  2.2686E-01   1.0205E+01  0.000E+00  0.000E+00  0.000E+00  1.05868E+03  6.790E-01  1.542E+01  6.166E-02  1.226E+00
   1    7    7     5     2    1.0205E+01  2.7894E-01   9.9265E+00  0.000E+00  0.000E+00  0.000E+00  1.05417E+03  6.732E-01  1.519E+01  7.594E-02  1.224E+00
   1    8    7     5     3    9.9265E+00  1.9221E-01   9.7343E+00  0.000E+00  0.000E+00  0.000E+00  1.04992E+03  6.676E-01  1.497E+01  5.241E-02  1.223E+00
   1    8    6     5     4    9.7343E+00  1.3577E-01   9.5985E+00  0.000E+00  0.000E+00  0.000E+00  1.04691E+03  6.637E-01  1.482E+01  3.706E-02  1.221E+00
   1    9    6     6     1    8.0743E+01  3.2786E-01   8.0415E+01  0.000E+00  0.000E+00  0.000E+00  1.04519E+03  2.464E+00  1.200E+01  6.000E-02  1.821E+00
   1   10    7     6     2    8.0415E+01  3.2750E-01   8.0088E+01  0.000E+00  0.000E+00  0.000E+00  1.04064E+03  2.458E+00  1.200E+01  6.000E-02  1.819E+00
   1   11    7     6     3    8.0088E+01  3.2714E-01   7.9761E+01  0.000E+00  0.000E+00  0.000E+00  1.03609E+03  2.452E+00  1.200E+01  6.000E-02  1.817E+00
   1   12    7     6     4    7.9761E+01  3.2678E-01   7.9434E+01  0.000E+00  0.000E+00  0.000E+00  1.03154E+03  2.446E+00  1.200E+01  6.000E-02  1.815E+00
   1   13    7     6     5    7.9434E+01  2.9774E-02   7.9404E+01  0.000E+00  0.000E+00  0.000E+00  1.02835E+03  2.443E+00  1.200E+01  2.400E-02  4.135E-01
   1   14    9     7     1    1.5000E+02  1.3375E+00   1.4866E+02  0.000E+00  0.000E+00  0.000E+00  1.03987E+03  2.288E+00  5.529E+01  5.593E-01  7.971E-01
   1   13    8     7     2    1.4866E+02  1.8328E+00   1.4683E+02  0.000E+00  0.000E+00  0.000E+00  1.03478E+03  2.279E+00  5.526E+01  6.148E-01  9.937E-01
   1   13    7     7     3    1.4683E+02  1.4399E+00   1.4539E+02  0.000E+00  0.000E+00  0.000E+00  1.02969E+03  2.271E+00  5.522E+01  5.585E-01  8.595E-01
   1   13    6     8     1    2.2479E+02  1.1199E+00   2.2367E+02  0.000E+00  0.000E+00  0.000E+00  1.02515E+03  3.275E+00  4.749E+01  4.839E-01  7.714E-01
   1   13    5     8     2    2.2367E+02  2.8772E-01   2.2339E+02  0.000E+00  0.000E+00  0.000E+00  1.01890E+03  3.271E+00  4.743E+01  4.834E-01  1.984E-01
   1   13    4     8     3    2.2339E+02 -2.0098E+00   2.2540E+02  0.000E+00  0.000E+00  0.000E+00  1.01265E+03  3.276E+00  4.750E+01  4.841E+00 -1.384E-01
   1   13    3     8     4    2.2540E+02 -3.2417E+00   2.2864E+02  0.000E+00  0.000E+00  0.000E+00  1.00642E+03  3.290E+00  4.771E+01  4.862E+00 -2.223E-01
   1   13    2     8     5    2.2864E+02 -2.1240E+00   2.3076E+02  0.000E+00  0.000E+00  0.000E+00  1.00018E+03  3.305E+00  4.792E+01  4.883E+00 -1.450E-01
   1   13    1     8     6    2.3076E+02 -1.6189E+00   2.3238E+02  0.000E+00  0.000E+00  0.000E+00  9.95190E+02  3.315E+00  4.807E+01  2.939E+00 -1.836E-01
   1    6    8     9     1    0.0000E+00  0.0000E+00   0.0000E+00  0.000E+00  0.000E+00  0.000E+00  1.07850E+03  0.000E+00  4.000E+00  0.000E+00  1.000E+00



 UBDSV3 SAVING "           GW ET" ON UNIT  61 AT TIME STEP     9, STRESS PERIOD   5
 UBDSV3 SAVING "    UZF RECHARGE" ON UNIT  61 AT TIME STEP     9, STRESS PERIOD   5
 UBDSV3 SAVING " SURFACE LEAKAGE" ON UNIT  61 AT TIME STEP     9, STRESS PERIOD   5
 UBDSV3 SAVING "       HORT+DUNN" ON UNIT  61 AT TIME STEP     9, STRESS PERIOD   5
 UBDSV3 SAVING "  STORAGE CHANGE" ON UNIT  61 AT TIME STEP     9, STRESS PERIOD   5


UNSATURATED ZONE PACKAGE VOLUMETRIC BUDGET FOR  TIME STEP     9 STRESS PERIOD    5
  ------------------------------------------------------------------------------



     CUMULATIVE VOLUMES      L**3       RATES FOR THIS TIME STEP      L**3/T
     ------------------                 ------------------------

           IN:                                      IN:
           ---                                      ---
        INFILTRATION =    10123796.7305          INFILTRATION =       0.0000E+00

          OUT:                                     OUT:
          ----                                     ----
              UZF ET =      154671.0579                UZF ET =           0.2437
        UZF RECHARGE =      979310.6417          UZF RECHARGE =           0.2218

            IN - OUT =     8989815.0309              IN - OUT =          -0.4655

          STORAGE:                                 STORAGE:
          --------                                 --------
      STORAGE CHANGE =     8990795.5874        STORAGE CHANGE =          -0.4655

 PERCENT DISCREPANCY IS DIFFERENCE BETWEEN IN-OUT MINUS CHANGE IN STORAGE
 DIVIDED BY THE AVERAGE OF IN AND OUT TIMES 100

 PERCENT DISCREPANCY =          -0.00     PERCENT DISCREPANCY =          -0.00






 

 AWU WELLS                PERIOD    5   STEP   9
 AWU WELL      1   LAYER   1   ROW     6   COL     4   RATE     0.00000    
 AWU WELL      2   LAYER   1   ROW     6   COL     5   RATE     0.00000    
 AWU WELL      3   LAYER   1   ROW     7   COL     4   RATE     0.00000    
 AWU WELL      4   LAYER   1   ROW     7   COL     5   RATE     0.00000    
 AWU WELL      5   LAYER   1   ROW     8   COL     4   RATE     0.00000    
 AWU WELL      6   LAYER   1   ROW     8   COL     5   RATE     0.00000    
 
 

 DIVERSION SEGMENTS       PERIOD    5   STEP   9
 SEGMENT      9   RATE     0.00000    
 
 

 SW IRRIGATION            PERIOD    5   STEP   9
 SEGMENT      9   ROW     6   COL     4   RATE     0.00000    
 SEGMENT      9   ROW     6   COL     5   RATE     0.00000    
 SEGMENT      9   ROW     7   COL     4   RATE     0.00000    
 SEGMENT      9   ROW     7   COL     5   RATE     0.00000    
 SEGMENT      9   ROW     8   COL     4   RATE     0.00000    
 SEGMENT      9   ROW     8   COL     5   RATE     0.00000    
 
 

 GW IRRIGATION            PERIOD    5   STEP   9
 AWU WELL      1   ROW     6   COL     4   RATE     0.00000    
 AWU WELL      2   ROW     6   COL     5   RATE     0.00000    
 AWU WELL      3   ROW     7   COL     4   RATE     0.00000    
 AWU WELL      4   ROW     7   COL     5   RATE     0.00000    
 AWU WELL      5   ROW     8   COL     4   RATE     0.00000    
 AWU WELL      6   ROW     8   COL     5   RATE     0.00000    
 
1
  VOLUMETRIC BUDGET FOR ENTIRE MODEL AT END OF TIME STEP    9, STRESS PERIOD   5
  ------------------------------------------------------------------------------

     CUMULATIVE VOLUMES      L**3       RATES FOR THIS TIME STEP      L**3/T
     ------------------                 ------------------------

           IN:                                      IN:
           ---                                      ---
    AWU WELLS            =     7134365.5000      AWU WELLS            =           0.0000
    DIVERSION SEGMENTS   =     2916207.2500      DIVERSION SEGMENTS   =           0.0000
    GW IRRIGATION        =           0.0000      GW IRRIGATION        =           0.0000
    SW IRRIGATION        =           0.0000      SW IRRIGATION        =           0.0000
    EFFICIENCY FACTOR GW =           0.0000      EFFICIENCY FACTOR GW =           0.0000
    EFFICIENCY FACTOR SW =           0.0000      EFFICIENCY FACTOR SW =           0.0000

                TOTAL IN =    10050573.0000                  TOTAL IN =           0.0000

          OUT:                                     OUT:
          ----                                     ----
    AWU WELLS            =           0.0000      AWU WELLS            =           0.0000
    DIVERSION SEGMENTS   =           0.0000      DIVERSION SEGMENTS   =           0.0000
    GW IRRIGATION        =     7134365.5000      GW IRRIGATION        =           0.0000
    SW IRRIGATION        =     2916207.2500      SW IRRIGATION        =           0.0000
    EFFICIENCY FACTOR GW =           0.0000      EFFICIENCY FACTOR GW =           0.0000
    EFFICIENCY FACTOR SW =           0.0000      EFFICIENCY FACTOR SW =           0.0000

               TOTAL OUT =    10050573.0000                 TOTAL OUT =           0.0000

                IN - OUT =           0.0000                  IN - OUT =           0.0000

     PERCENT DISCREPANCY =           0.00         PERCENT DISCREPANCY =           0.00



1
  VOLUMETRIC BUDGET FOR ENTIRE MODEL AT END OF TIME STEP    9, STRESS PERIOD   5
  ------------------------------------------------------------------------------

     CUMULATIVE VOLUMES      L**3       RATES FOR THIS TIME STEP      L**3/T
     ------------------                 ------------------------

           IN:                                      IN:
           ---                                      ---
             STORAGE     =    12895808.0000               STORAGE     =           1.1687
       CONSTANT HEAD     =           0.0000         CONSTANT HEAD     =           0.0000
     HEAD DEP BOUNDS     =     2503389.0000       HEAD DEP BOUNDS     =           0.2859
      STREAM LEAKAGE     =   102523152.0000        STREAM LEAKAGE     =          13.6138
        UZF RECHARGE     =      979310.7500          UZF RECHARGE     =           0.2218
               GW ET     =           0.0000                 GW ET     =           0.0000
     SURFACE LEAKAGE     =           0.0000       SURFACE LEAKAGE     =           0.0000
    AWU WELLS            =           0.0000      AWU WELLS            =           0.0000

                TOTAL IN =   118901664.0000                  TOTAL IN =          15.2902

          OUT:                                     OUT:
          ----                                     ----
             STORAGE     =    18875168.0000               STORAGE     =           5.4705
       CONSTANT HEAD     =           0.0000         CONSTANT HEAD     =           0.0000
     HEAD DEP BOUNDS     =     2530084.7500       HEAD DEP BOUNDS     =           0.2942
      STREAM LEAKAGE     =    89786776.0000        STREAM LEAKAGE     =           8.9945
        UZF RECHARGE     =           0.0000          UZF RECHARGE     =           0.0000
               GW ET     =      582178.7500                 GW ET     =           0.5313
     SURFACE LEAKAGE     =           0.0000       SURFACE LEAKAGE     =           0.0000
    AWU WELLS            =     7134365.5000      AWU WELLS            =           0.0000

               TOTAL OUT =   118908576.0000                 TOTAL OUT =          15.2904

                IN - OUT =       -6912.0000                  IN - OUT =      -2.3651E-04

     PERCENT DISCREPANCY =          -0.01         PERCENT DISCREPANCY =          -0.00






         TIME SUMMARY AT END OF TIME STEP    9 IN STRESS PERIOD    5
                    SECONDS     MINUTES      HOURS       DAYS        YEARS
                    -----------------------------------------------------------
   TIME STEP LENGTH  87600.      1460.0      24.333      1.0139     2.77588E-03
 STRESS PERIOD TIME 7.88400E+05  13140.      219.00      9.1250     2.49829E-02
         TOTAL TIME 8.75880E+06 1.45980E+05  2433.0      101.38     0.27755    
1
 
 SOLVING FOR HEAD 
                                                   Max.-Head-Change                         Max.-Flux-Residual
  Residual-Control   Outer-Iter.   Inner-Iter.     Column Row Layer    Maximum-Head-Change  Column Row Layer    Maximum-Flux-Residual          L2-NORM 
          0                 1           2             2    2     1       0.7456622802E-02       2    2    1         0.3894754702E+00      0.1098059360E+01
          0                 2           2             5    6     1      -0.4946502841E-03       5    6    1        -0.2713566566E-01      0.7185244687E-01
          0                 3           1             5    6     1       0.4411324350E-04       5    6    1         0.2442210152E-02      0.5434164237E-02

    ------------------------------------------------
       NWT REQUIRED            3 OUTER ITERATIONS 
       AND A TOTAL OF          5 INNER ITERATIONS.
    ------------------------------------------------

 OUTPUT CONTROL FOR STRESS PERIOD    5   TIME STEP   10
    PRINT BUDGET
    SAVE BUDGET
 UBDSV1 SAVING "         STORAGE" ON UNIT 102 AT TIME STEP    10, STRESS PERIOD   5
 UBDSV2 SAVING "   CONSTANT HEAD" ON UNIT 102 AT TIME STEP    10, STRESS PERIOD   5
 UBDSV1 SAVING "FLOW RIGHT FACE " ON UNIT 102 AT TIME STEP    10, STRESS PERIOD   5
 UBDSV1 SAVING "FLOW FRONT FACE " ON UNIT 102 AT TIME STEP    10, STRESS PERIOD   5

  HEAD DEP BOUNDS   PERIOD    5   STEP    10
 BOUNDARY      1   LAYER   1   ROW    13   COL     1   RATE   -0.294323    
 BOUNDARY      2   LAYER   1   ROW    14   COL     9   RATE    0.285873    



 STREAM LISTING     PERIOD      5   STEP       10

 LAYER ROW COL. STREAM  RCH.  FLOW INTO     FLOW TO   FLOW OUT OF   OVRLND.     DIRECT     STREAM       STREAM     STREAM     STREAM   STREAMBED  STREAMBED
                SEG.NO.  NO.  STRM. RCH.    AQUIFER    STRM. RCH.    RUNOFF     PRECIP       ET          HEAD       DEPTH      WIDTH   CONDCTNC.   GRADIENT

   1    1    1     1     1    7.7000E+01  4.2703E-01   7.6573E+01  0.000E+00  0.000E+00  0.000E+00  1.09476E+03  1.708E+00  2.016E+01  9.070E-02  1.569E+00
   1    2    2     1     2    7.6573E+01  6.6237E-01   7.5911E+01  0.000E+00  0.000E+00  0.000E+00  1.08976E+03  1.706E+00  2.011E+01  1.408E-01  1.569E+00
   1    3    3     1     3    7.5911E+01  5.6590E-01   7.5345E+01  0.000E+00  0.000E+00  0.000E+00  1.08412E+03  1.703E+00  2.006E+01  1.203E-01  1.568E+00
   1    3    4     1     4    7.5345E+01  5.2193E-01   7.4823E+01  0.000E+00  0.000E+00  0.000E+00  1.07911E+03  1.700E+00  2.001E+01  1.110E-01  1.567E+00
   1    4    5     2     1    7.2823E+01  4.1259E-01   7.2410E+01  0.000E+00  0.000E+00  0.000E+00  1.07422E+03  2.290E+00  1.200E+01  7.800E-02  1.763E+00
   1    5    6     2     2    7.2410E+01  3.1696E-01   7.2093E+01  0.000E+00  0.000E+00  0.000E+00  1.06879E+03  2.283E+00  1.200E+01  6.000E-02  1.761E+00
   1    6    6     2     3    7.2093E+01  3.1660E-01   7.1777E+01  0.000E+00  0.000E+00  0.000E+00  1.06407E+03  2.277E+00  1.200E+01  6.000E-02  1.759E+00
   1    7    6     2     4    7.1777E+01  3.1624E-01   7.1460E+01  0.000E+00  0.000E+00  0.000E+00  1.05935E+03  2.271E+00  1.200E+01  6.000E-02  1.757E+00
   1    8    6     2     5    7.1460E+01  3.1588E-01   7.1144E+01  0.000E+00  0.000E+00  0.000E+00  1.05462E+03  2.265E+00  1.200E+01  6.000E-02  1.755E+00
   1    3    5     3     1    2.0000E+00  2.8252E-01   1.7175E+00  0.000E+00  0.000E+00  0.000E+00  1.07555E+03  1.909E+00  9.636E+00  7.227E-02  1.955E+00
   1    3    6     3     2    1.7175E+00  2.4905E-01   1.4684E+00  0.000E+00  0.000E+00  0.000E+00  1.07264E+03  1.727E+00  8.909E+00  6.682E-02  1.864E+00
   1    3    7     3     3    1.4684E+00  1.9718E-01   1.2712E+00  0.000E+00  0.000E+00  0.000E+00  1.06987E+03  1.555E+00  8.218E+00  5.547E-02  1.777E+00
   1    4    8     3     4    1.2712E+00  2.2567E-01   1.0456E+00  0.000E+00  0.000E+00  0.000E+00  1.06682E+03  1.364E+00  7.455E+00  6.709E-02  1.682E+00
   1    5    8     3     5    1.0456E+00  1.5790E-01   8.8768E-01  0.000E+00  0.000E+00  0.000E+00  1.06362E+03  1.164E+00  6.655E+00  4.991E-02  1.582E+00
   1    6    8     3     6    8.8768E-01  5.5980E-02   8.3170E-01  0.000E+00  0.000E+00  0.000E+00  1.06158E+03  1.036E+00  6.145E+00  1.844E-02  1.518E+00
   1    5   10     4     1    1.0000E+01  9.0919E-02   9.9091E+00  0.000E+00  0.000E+00  0.000E+00  1.07836E+03  6.368E-01  1.000E+01  2.500E-02  1.212E+00
   1    5    9     4     2    9.9091E+00  1.8158E-01   9.7275E+00  0.000E+00  0.000E+00  0.000E+00  1.07154E+03  6.315E-01  1.000E+01  5.000E-02  1.211E+00
   1    6    8     4     3    9.7275E+00  1.2689E-01   9.6006E+00  0.000E+00  0.000E+00  0.000E+00  1.06381E+03  6.256E-01  1.000E+01  3.500E-02  1.209E+00
   1    6    8     5     1    1.0432E+01  2.2686E-01   1.0205E+01  0.000E+00  0.000E+00  0.000E+00  1.05868E+03  6.790E-01  1.542E+01  6.166E-02  1.226E+00
   1    7    7     5     2    1.0205E+01  2.7894E-01   9.9265E+00  0.000E+00  0.000E+00  0.000E+00  1.05417E+03  6.732E-01  1.519E+01  7.594E-02  1.224E+00
   1    8    7     5     3    9.9265E+00  1.9221E-01   9.7343E+00  0.000E+00  0.000E+00  0.000E+00  1.04992E+03  6.676E-01  1.497E+01  5.241E-02  1.223E+00
   1    8    6     5     4    9.7343E+00  1.3577E-01   9.5985E+00  0.000E+00  0.000E+00  0.000E+00  1.04691E+03  6.637E-01  1.482E+01  3.706E-02  1.221E+00
   1    9    6     6     1    8.0743E+01  3.2786E-01   8.0415E+01  0.000E+00  0.000E+00  0.000E+00  1.04519E+03  2.464E+00  1.200E+01  6.000E-02  1.821E+00
   1   10    7     6     2    8.0415E+01  3.2750E-01   8.0088E+01  0.000E+00  0.000E+00  0.000E+00  1.04064E+03  2.458E+00  1.200E+01  6.000E-02  1.819E+00
   1   11    7     6     3    8.0088E+01  3.2714E-01   7.9761E+01  0.000E+00  0.000E+00  0.000E+00  1.03609E+03  2.452E+00  1.200E+01  6.000E-02  1.817E+00
   1   12    7     6     4    7.9761E+01  3.2678E-01   7.9434E+01  0.000E+00  0.000E+00  0.000E+00  1.03154E+03  2.446E+00  1.200E+01  6.000E-02  1.815E+00
   1   13    7     6     5    7.9434E+01  2.9750E-02   7.9404E+01  0.000E+00  0.000E+00  0.000E+00  1.02835E+03  2.443E+00  1.200E+01  2.400E-02  4.132E-01
   1   14    9     7     1    1.5000E+02  1.3375E+00   1.4866E+02  0.000E+00  0.000E+00  0.000E+00  1.03987E+03  2.288E+00  5.529E+01  5.593E-01  7.971E-01
   1   13    8     7     2    1.4866E+02  1.8326E+00   1.4683E+02  0.000E+00  0.000E+00  0.000E+00  1.03478E+03  2.279E+00  5.526E+01  6.148E-01  9.937E-01
   1   13    7     7     3    1.4683E+02  1.4393E+00   1.4539E+02  0.000E+00  0.000E+00  0.000E+00  1.02969E+03  2.271E+00  5.522E+01  5.585E-01  8.591E-01
   1   13    6     8     1    2.2479E+02  1.1186E+00   2.2368E+02  0.000E+00  0.000E+00  0.000E+00  1.02515E+03  3.275E+00  4.749E+01  4.839E-01  7.705E-01
   1   13    5     8     2    2.2368E+02  2.8670E-01   2.2339E+02  0.000E+00  0.000E+00  0.000E+00  1.01890E+03  3.271E+00  4.743E+01  4.834E-01  1.977E-01
   1   13    4     8     3    2.2339E+02 -2.0333E+00   2.2542E+02  0.000E+00  0.000E+00  0.000E+00  1.01265E+03  3.276E+00  4.750E+01  4.841E+00 -1.400E-01
   1   13    3     8     4    2.2542E+02 -3.2649E+00   2.2869E+02  0.000E+00  0.000E+00  0.000E+00  1.00642E+03  3.291E+00  4.771E+01  4.862E+00 -2.238E-01
   1   13    2     8     5    2.2869E+02 -2.1515E+00   2.3084E+02  0.000E+00  0.000E+00  0.000E+00  1.00018E+03  3.305E+00  4.793E+01  4.884E+00 -1.468E-01
   1   13    1     8     6    2.3084E+02 -1.6310E+00   2.3247E+02  0.000E+00  0.000E+00  0.000E+00  9.95190E+02  3.315E+00  4.807E+01  2.939E+00 -1.850E-01
   1    6    8     9     1    0.0000E+00  0.0000E+00   0.0000E+00  0.000E+00  0.000E+00  0.000E+00  1.07850E+03  0.000E+00  4.000E+00  0.000E+00  1.000E+00



 UBDSV3 SAVING "           GW ET" ON UNIT  61 AT TIME STEP    10, STRESS PERIOD   5
 UBDSV3 SAVING "    UZF RECHARGE" ON UNIT  61 AT TIME STEP    10, STRESS PERIOD   5
 UBDSV3 SAVING " SURFACE LEAKAGE" ON UNIT  61 AT TIME STEP    10, STRESS PERIOD   5
 UBDSV3 SAVING "       HORT+DUNN" ON UNIT  61 AT TIME STEP    10, STRESS PERIOD   5
 UBDSV3 SAVING "  STORAGE CHANGE" ON UNIT  61 AT TIME STEP    10, STRESS PERIOD   5


UNSATURATED ZONE PACKAGE VOLUMETRIC BUDGET FOR  TIME STEP    10 STRESS PERIOD    5
  ------------------------------------------------------------------------------



     CUMULATIVE VOLUMES      L**3       RATES FOR THIS TIME STEP      L**3/T
     ------------------                 ------------------------

           IN:                                      IN:
           ---                                      ---
        INFILTRATION =    10123796.7305          INFILTRATION =       0.0000E+00

          OUT:                                     OUT:
          ----                                     ----
              UZF ET =      176619.9587                UZF ET =           0.2506
        UZF RECHARGE =      998408.9054          UZF RECHARGE =           0.2180

            IN - OUT =     8948767.8663              IN - OUT =          -0.4686

          STORAGE:                                 STORAGE:
          --------                                 --------
      STORAGE CHANGE =     8949749.4146        STORAGE CHANGE =          -0.4686

 PERCENT DISCREPANCY IS DIFFERENCE BETWEEN IN-OUT MINUS CHANGE IN STORAGE
 DIVIDED BY THE AVERAGE OF IN AND OUT TIMES 100

 PERCENT DISCREPANCY =          -0.00     PERCENT DISCREPANCY =          -0.00






 

 AWU WELLS                PERIOD    5   STEP  10
 AWU WELL      1   LAYER   1   ROW     6   COL     4   RATE     0.00000    
 AWU WELL      2   LAYER   1   ROW     6   COL     5   RATE     0.00000    
 AWU WELL      3   LAYER   1   ROW     7   COL     4   RATE     0.00000    
 AWU WELL      4   LAYER   1   ROW     7   COL     5   RATE     0.00000    
 AWU WELL      5   LAYER   1   ROW     8   COL     4   RATE     0.00000    
 AWU WELL      6   LAYER   1   ROW     8   COL     5   RATE     0.00000    
 
 

 DIVERSION SEGMENTS       PERIOD    5   STEP  10
 SEGMENT      9   RATE     0.00000    
 
 

 SW IRRIGATION            PERIOD    5   STEP  10
 SEGMENT      9   ROW     6   COL     4   RATE     0.00000    
 SEGMENT      9   ROW     6   COL     5   RATE     0.00000    
 SEGMENT      9   ROW     7   COL     4   RATE     0.00000    
 SEGMENT      9   ROW     7   COL     5   RATE     0.00000    
 SEGMENT      9   ROW     8   COL     4   RATE     0.00000    
 SEGMENT      9   ROW     8   COL     5   RATE     0.00000    
 
 

 GW IRRIGATION            PERIOD    5   STEP  10
 AWU WELL      1   ROW     6   COL     4   RATE     0.00000    
 AWU WELL      2   ROW     6   COL     5   RATE     0.00000    
 AWU WELL      3   ROW     7   COL     4   RATE     0.00000    
 AWU WELL      4   ROW     7   COL     5   RATE     0.00000    
 AWU WELL      5   ROW     8   COL     4   RATE     0.00000    
 AWU WELL      6   ROW     8   COL     5   RATE     0.00000    
 
1
  VOLUMETRIC BUDGET FOR ENTIRE MODEL AT END OF TIME STEP   10, STRESS PERIOD   5
  ------------------------------------------------------------------------------

     CUMULATIVE VOLUMES      L**3       RATES FOR THIS TIME STEP      L**3/T
     ------------------                 ------------------------

           IN:                                      IN:
           ---                                      ---
    AWU WELLS            =     7134365.5000      AWU WELLS            =           0.0000
    DIVERSION SEGMENTS   =     2916207.2500      DIVERSION SEGMENTS   =           0.0000
    GW IRRIGATION        =           0.0000      GW IRRIGATION        =           0.0000
    SW IRRIGATION        =           0.0000      SW IRRIGATION        =           0.0000
    EFFICIENCY FACTOR GW =           0.0000      EFFICIENCY FACTOR GW =           0.0000
    EFFICIENCY FACTOR SW =           0.0000      EFFICIENCY FACTOR SW =           0.0000

                TOTAL IN =    10050573.0000                  TOTAL IN =           0.0000

          OUT:                                     OUT:
          ----                                     ----
    AWU WELLS            =           0.0000      AWU WELLS            =           0.0000
    DIVERSION SEGMENTS   =           0.0000      DIVERSION SEGMENTS   =           0.0000
    GW IRRIGATION        =     7134365.5000      GW IRRIGATION        =           0.0000
    SW IRRIGATION        =     2916207.2500      SW IRRIGATION        =           0.0000
    EFFICIENCY FACTOR GW =           0.0000      EFFICIENCY FACTOR GW =           0.0000
    EFFICIENCY FACTOR SW =           0.0000      EFFICIENCY FACTOR SW =           0.0000

               TOTAL OUT =    10050573.0000                 TOTAL OUT =           0.0000

                IN - OUT =           0.0000                  IN - OUT =           0.0000

     PERCENT DISCREPANCY =           0.00         PERCENT DISCREPANCY =           0.00



1
  VOLUMETRIC BUDGET FOR ENTIRE MODEL AT END OF TIME STEP   10, STRESS PERIOD   5
  ------------------------------------------------------------------------------

     CUMULATIVE VOLUMES      L**3       RATES FOR THIS TIME STEP      L**3/T
     ------------------                 ------------------------

           IN:                                      IN:
           ---                                      ---
             STORAGE     =    12993894.0000               STORAGE     =           1.1197
       CONSTANT HEAD     =           0.0000         CONSTANT HEAD     =           0.0000
     HEAD DEP BOUNDS     =     2528431.5000       HEAD DEP BOUNDS     =           0.2859
      STREAM LEAKAGE     =   103715456.0000        STREAM LEAKAGE     =          13.6107
        UZF RECHARGE     =      998409.0000          UZF RECHARGE     =           0.2180
               GW ET     =           0.0000                 GW ET     =           0.0000
     SURFACE LEAKAGE     =           0.0000       SURFACE LEAKAGE     =           0.0000
    AWU WELLS            =           0.0000      AWU WELLS            =           0.0000

                TOTAL IN =   120236192.0000                  TOTAL IN =          15.2343

          OUT:                                     OUT:
          ----                                     ----
             STORAGE     =    19341856.0000               STORAGE     =           5.3275
       CONSTANT HEAD     =           0.0000         CONSTANT HEAD     =           0.0000
     HEAD DEP BOUNDS     =     2555867.5000       HEAD DEP BOUNDS     =           0.2943
      STREAM LEAKAGE     =    90582256.0000        STREAM LEAKAGE     =           9.0808
        UZF RECHARGE     =           0.0000          UZF RECHARGE     =           0.0000
               GW ET     =      628779.9375                 GW ET     =           0.5320
     SURFACE LEAKAGE     =           0.0000       SURFACE LEAKAGE     =           0.0000
    AWU WELLS            =     7134365.5000      AWU WELLS            =           0.0000

               TOTAL OUT =   120243128.0000                 TOTAL OUT =          15.2346

                IN - OUT =       -6936.0000                  IN - OUT =      -2.4128E-04

     PERCENT DISCREPANCY =          -0.01         PERCENT DISCREPANCY =          -0.00






         TIME SUMMARY AT END OF TIME STEP   10 IN STRESS PERIOD    5
                    SECONDS     MINUTES      HOURS       DAYS        YEARS
                    -----------------------------------------------------------
   TIME STEP LENGTH  87600.      1460.0      24.333      1.0139     2.77588E-03
 STRESS PERIOD TIME 8.76000E+05  14600.      243.33      10.139     2.77588E-02
         TOTAL TIME 8.84640E+06 1.47440E+05  2457.3      102.39     0.28033    
1
 
 SOLVING FOR HEAD 
                                                   Max.-Head-Change                         Max.-Flux-Residual
  Residual-Control   Outer-Iter.   Inner-Iter.     Column Row Layer    Maximum-Head-Change  Column Row Layer    Maximum-Flux-Residual          L2-NORM 
          0                 1           2             2    2     1       0.7410731873E-02       2    2    1         0.3870610313E+00      0.1057615985E+01
          0                 2           2             5    6     1      -0.4737412154E-03       5    6    1        -0.2596430404E-01      0.6910822384E-01
          0                 3           1             5    6     1       0.4224857491E-04       5    6    1         0.2336787618E-02      0.5225119117E-02

    ------------------------------------------------
       NWT REQUIRED            3 OUTER ITERATIONS 
       AND A TOTAL OF          5 INNER ITERATIONS.
    ------------------------------------------------

 NO OUTPUT CONTROL FOR STRESS PERIOD    5   TIME STEP   11
 
 SOLVING FOR HEAD 
                                                   Max.-Head-Change                         Max.-Flux-Residual
  Residual-Control   Outer-Iter.   Inner-Iter.     Column Row Layer    Maximum-Head-Change  Column Row Layer    Maximum-Flux-Residual          L2-NORM 
          0                 1           2             2    2     1       0.7365418742E-02       2    2    1         0.3846770952E+00      0.1021380424E+01
          0                 2           2             5    6     1      -0.4541534339E-03       5    6    1        -0.2486770920E-01      0.6660269156E-01
          0                 3           1             5    6     1       0.4050174306E-04       5    6    1         0.2238094044E-02      0.5031438757E-02

    ------------------------------------------------
       NWT REQUIRED            3 OUTER ITERATIONS 
       AND A TOTAL OF          5 INNER ITERATIONS.
    ------------------------------------------------

 NO OUTPUT CONTROL FOR STRESS PERIOD    5   TIME STEP   12
 
 SOLVING FOR HEAD 
                                                   Max.-Head-Change                         Max.-Flux-Residual
  Residual-Control   Outer-Iter.   Inner-Iter.     Column Row Layer    Maximum-Head-Change  Column Row Layer    Maximum-Flux-Residual          L2-NORM 
          0                 1           2             2    2     1       0.7320760147E-02       2    2    1         0.3823276720E+00      0.8717031892E+00
          0                 2           2             4   13     1       0.2924857472E-02       4   13    1         0.1691282671E+00      0.2961217590E+00
          0                 3           2             4   13     1      -0.1437319463E-03       4   13    1        -0.8394324659E-02      0.1439896981E-01
          0                 4           1             4   13     1       0.5720503473E-05       4   13    1         0.3374760900E-03      0.6315073518E-03

    ------------------------------------------------
       NWT REQUIRED            4 OUTER ITERATIONS 
       AND A TOTAL OF          7 INNER ITERATIONS.
    ------------------------------------------------

 NO OUTPUT CONTROL FOR STRESS PERIOD    5   TIME STEP   13
 
 SOLVING FOR HEAD 
                                                   Max.-Head-Change                         Max.-Flux-Residual
  Residual-Control   Outer-Iter.   Inner-Iter.     Column Row Layer    Maximum-Head-Change  Column Row Layer    Maximum-Flux-Residual          L2-NORM 
          0                 1           2             2    2     1       0.7276660862E-02       2    2    1         0.3800077353E+00      0.9061816066E+00
          0                 2           2             4   13     1       0.7537226329E-02       4   13    1         0.4397011230E+00      0.7586878787E+00
          0                 3           2             4   13     1      -0.4993685857E-03       4   13    1        -0.2943792673E-01      0.4563988555E-01
          0                 4           1             4   13     1       0.1517048190E-04       4   13    1         0.9033691804E-03      0.1337929975E-02

    ------------------------------------------------
       NWT REQUIRED            4 OUTER ITERATIONS 
       AND A TOTAL OF          7 INNER ITERATIONS.
    ------------------------------------------------

 NO OUTPUT CONTROL FOR STRESS PERIOD    5   TIME STEP   14
 
 SOLVING FOR HEAD 
                                                   Max.-Head-Change                         Max.-Flux-Residual
  Residual-Control   Outer-Iter.   Inner-Iter.     Column Row Layer    Maximum-Head-Change  Column Row Layer    Maximum-Flux-Residual          L2-NORM 
          0                 1           2             2    2     1       0.7233195392E-02       2    2    1         0.3777212377E+00      0.9057728408E+00
          0                 2           2             4   13     1       0.7569853004E-02       4   13    1         0.4416073185E+00      0.7620304829E+00
          0                 3           2             4   13     1      -0.5134681646E-03       4   13    1        -0.3026854943E-01      0.4718156097E-01
          0                 4           1             4   13     1       0.1561552118E-04       4   13    1         0.9298533405E-03      0.1377835494E-02

    ------------------------------------------------
       NWT REQUIRED            4 OUTER ITERATIONS 
       AND A TOTAL OF          7 INNER ITERATIONS.
    ------------------------------------------------

 NO OUTPUT CONTROL FOR STRESS PERIOD    5   TIME STEP   15
 
 SOLVING FOR HEAD 
                                                   Max.-Head-Change                         Max.-Flux-Residual
  Residual-Control   Outer-Iter.   Inner-Iter.     Column Row Layer    Maximum-Head-Change  Column Row Layer    Maximum-Flux-Residual          L2-NORM 
          0                 1           2             2    2     1       0.7190353414E-02       2    2    1         0.3754675955E+00      0.9061322828E+00
          0                 2           2             4   13     1       0.7598989481E-02       4   13    1         0.4433092704E+00      0.7650538532E+00
          0                 3           2             4   13     1      -0.5261292915E-03       4   13    1        -0.3101428686E-01      0.4859226931E-01
          0                 4           1             4   13     1       0.1597543816E-04       4   13    1         0.9512696615E-03      0.1411721160E-02

    ------------------------------------------------
       NWT REQUIRED            4 OUTER ITERATIONS 
       AND A TOTAL OF          7 INNER ITERATIONS.
    ------------------------------------------------

 NO OUTPUT CONTROL FOR STRESS PERIOD    5   TIME STEP   16
 
 SOLVING FOR HEAD 
                                                   Max.-Head-Change                         Max.-Flux-Residual
  Residual-Control   Outer-Iter.   Inner-Iter.     Column Row Layer    Maximum-Head-Change  Column Row Layer    Maximum-Flux-Residual          L2-NORM 
          0                 1           2             2    2     1       0.7148038042E-02       2    2    1         0.3732417143E+00      0.9070326688E+00
          0                 2           2             4   13     1       0.7625881608E-02       4   13    1         0.4448798315E+00      0.7678762486E+00
          0                 3           2             4   13     1      -0.5376101931E-03       4   13    1        -0.3169044470E-01      0.4988874854E-01
          0                 4           1             4   13     1       0.1635192086E-04       4   13    1         0.9736813008E-03      0.1445759642E-02

    ------------------------------------------------
       NWT REQUIRED            4 OUTER ITERATIONS 
       AND A TOTAL OF          7 INNER ITERATIONS.
    ------------------------------------------------

 NO OUTPUT CONTROL FOR STRESS PERIOD    5   TIME STEP   17
 
 SOLVING FOR HEAD 
                                                   Max.-Head-Change                         Max.-Flux-Residual
  Residual-Control   Outer-Iter.   Inner-Iter.     Column Row Layer    Maximum-Head-Change  Column Row Layer    Maximum-Flux-Residual          L2-NORM 
          0                 1           2             2    2     1       0.7106331627E-02       2    2    1         0.3710479440E+00      0.9083329189E+00
          0                 2           2             4   13     1       0.7650525238E-02       4   13    1         0.4463188207E+00      0.7704939990E+00
          0                 3           2             4   13     1      -0.5479617865E-03       4   13    1        -0.3230000047E-01      0.5107873888E-01
          0                 4           1             4   13     1       0.1658171222E-04       4   13    1         0.9872888277E-03      0.1474015711E-02

    ------------------------------------------------
       NWT REQUIRED            4 OUTER ITERATIONS 
       AND A TOTAL OF          7 INNER ITERATIONS.
    ------------------------------------------------

 NO OUTPUT CONTROL FOR STRESS PERIOD    5   TIME STEP   18
 
 SOLVING FOR HEAD 
                                                   Max.-Head-Change                         Max.-Flux-Residual
  Residual-Control   Outer-Iter.   Inner-Iter.     Column Row Layer    Maximum-Head-Change  Column Row Layer    Maximum-Flux-Residual          L2-NORM 
          0                 1           2             2    2     1       0.7065230582E-02       2    2    1         0.3688860620E+00      0.9098950537E+00
          0                 2           2             4   13     1       0.7672849382E-02       4   13    1         0.4476220893E+00      0.7728914407E+00
          0                 3           2             4   13     1      -0.5573155670E-03       4   13    1        -0.3285072892E-01      0.5216916449E-01
          0                 4           1             4   13     1       0.1694297594E-04       4   13    1         0.1008830798E-02      0.1503549719E-02

    ------------------------------------------------
       NWT REQUIRED            4 OUTER ITERATIONS 
       AND A TOTAL OF          7 INNER ITERATIONS.
    ------------------------------------------------

 NO OUTPUT CONTROL FOR STRESS PERIOD    5   TIME STEP   19
 
 SOLVING FOR HEAD 
                                                   Max.-Head-Change                         Max.-Flux-Residual
  Residual-Control   Outer-Iter.   Inner-Iter.     Column Row Layer    Maximum-Head-Change  Column Row Layer    Maximum-Flux-Residual          L2-NORM 
          0                 1           2             2    2     1       0.7024626858E-02       2    2    1         0.3667504552E+00      0.7901562041E+00
          0                 2           2             4   13     1       0.3675716492E-02       4   13    1         0.2144905552E+00      0.3704904903E+00
          0                 3           2             4   13     1      -0.2278452041E-03       4   13    1        -0.1343662866E-01      0.2068908585E-01
          0                 4           1             4   13     1       0.6949793761E-05       4   13    1         0.4139938264E-03      0.6578405140E-03

    ------------------------------------------------
       NWT REQUIRED            4 OUTER ITERATIONS 
       AND A TOTAL OF          7 INNER ITERATIONS.
    ------------------------------------------------

 NO OUTPUT CONTROL FOR STRESS PERIOD    5   TIME STEP   20
 
 SOLVING FOR HEAD 
                                                   Max.-Head-Change                         Max.-Flux-Residual
  Residual-Control   Outer-Iter.   Inner-Iter.     Column Row Layer    Maximum-Head-Change  Column Row Layer    Maximum-Flux-Residual          L2-NORM 
          0                 1           2             2    2     1       0.6984599035E-02       2    2    1         0.3646451904E+00      0.8273515859E+00
          0                 2           2             5    6     1      -0.3232967460E-03       5    6    1        -0.1756334765E-01      0.5165632893E-01
          0                 3           1             5    6     1       0.2883184721E-04       5    6    1         0.1580701420E-02      0.3788764897E-02

    ------------------------------------------------
       NWT REQUIRED            3 OUTER ITERATIONS 
       AND A TOTAL OF          5 INNER ITERATIONS.
    ------------------------------------------------

 NO OUTPUT CONTROL FOR STRESS PERIOD    5   TIME STEP   21
 
 SOLVING FOR HEAD 
                                                   Max.-Head-Change                         Max.-Flux-Residual
  Residual-Control   Outer-Iter.   Inner-Iter.     Column Row Layer    Maximum-Head-Change  Column Row Layer    Maximum-Flux-Residual          L2-NORM 
          0                 1           2             2    2     1       0.6945135404E-02       2    2    1         0.3625696701E+00      0.8129733408E+00
          0                 2           2             5    6     1      -0.3126259043E-03       5    6    1        -0.1696972544E-01      0.5050915266E-01
          0                 3           1             5    6     1       0.2788020345E-04       5    6    1         0.1527275436E-02      0.3690980630E-02

    ------------------------------------------------
       NWT REQUIRED            3 OUTER ITERATIONS 
       AND A TOTAL OF          5 INNER ITERATIONS.
    ------------------------------------------------

 NO OUTPUT CONTROL FOR STRESS PERIOD    5   TIME STEP   22
 
 SOLVING FOR HEAD 
                                                   Max.-Head-Change                         Max.-Flux-Residual
  Residual-Control   Outer-Iter.   Inner-Iter.     Column Row Layer    Maximum-Head-Change  Column Row Layer    Maximum-Flux-Residual          L2-NORM 
          0                 1           2             2    2     1       0.6906141769E-02       2    2    1         0.3605189465E+00      0.7998264804E+00
          0                 2           2             2    2     1      -0.3100468597E-03       5    6    1        -0.1640929634E-01      0.4944243843E-01
          0                 3           1             5    6     1       0.2698131039E-04       5    6    1         0.1476836799E-02      0.3598609541E-02

    ------------------------------------------------
       NWT REQUIRED            3 OUTER ITERATIONS 
       AND A TOTAL OF          5 INNER ITERATIONS.
    ------------------------------------------------

 NO OUTPUT CONTROL FOR STRESS PERIOD    5   TIME STEP   23
 
 SOLVING FOR HEAD 
                                                   Max.-Head-Change                         Max.-Flux-Residual
  Residual-Control   Outer-Iter.   Inner-Iter.     Column Row Layer    Maximum-Head-Change  Column Row Layer    Maximum-Flux-Residual          L2-NORM 
          0                 1           2             2    2     1       0.6867696571E-02       2    2    1         0.3584971520E+00      0.7877772210E+00
          0                 2           2             2    2     1      -0.3083025135E-03       2    2    1        -0.1625023524E-01      0.4844961138E-01
          0                 3           1             5    6     1       0.2613422893E-04       5    6    1         0.1429335632E-02      0.3512653655E-02

    ------------------------------------------------
       NWT REQUIRED            3 OUTER ITERATIONS 
       AND A TOTAL OF          5 INNER ITERATIONS.
    ------------------------------------------------

 NO OUTPUT CONTROL FOR STRESS PERIOD    5   TIME STEP   24
 
 SOLVING FOR HEAD 
                                                   Max.-Head-Change                         Max.-Flux-Residual
  Residual-Control   Outer-Iter.   Inner-Iter.     Column Row Layer    Maximum-Head-Change  Column Row Layer    Maximum-Flux-Residual          L2-NORM 
          0                 1           2             2    2     1       0.6829791360E-02       2    2    1         0.3565037873E+00      0.7766934101E+00
          0                 2           2             2    2     1      -0.3065827010E-03       2    2    1        -0.1615907402E-01      0.4752717993E-01
          0                 3           1             5    6     1       0.2533277323E-04       5    6    1         0.1384423128E-02      0.3431765185E-02

    ------------------------------------------------
       NWT REQUIRED            3 OUTER ITERATIONS 
       AND A TOTAL OF          5 INNER ITERATIONS.
    ------------------------------------------------

 NO OUTPUT CONTROL FOR STRESS PERIOD    5   TIME STEP   25
 
 SOLVING FOR HEAD 
                                                   Max.-Head-Change                         Max.-Flux-Residual
  Residual-Control   Outer-Iter.   Inner-Iter.     Column Row Layer    Maximum-Head-Change  Column Row Layer    Maximum-Flux-Residual          L2-NORM 
          0                 1           2             2    2     1       0.6792417582E-02       2    2    1         0.3545384190E+00      0.7664696199E+00
          0                 2           2             2    2     1      -0.3048870490E-03       2    2    1        -0.1606919581E-01      0.4666800590E-01
          0                 3           1             5    6     1       0.2457398692E-04       5    6    1         0.1341921884E-02      0.3355967521E-02

    ------------------------------------------------
       NWT REQUIRED            3 OUTER ITERATIONS 
       AND A TOTAL OF          5 INNER ITERATIONS.
    ------------------------------------------------

 NO OUTPUT CONTROL FOR STRESS PERIOD    5   TIME STEP   26
 
 SOLVING FOR HEAD 
                                                   Max.-Head-Change                         Max.-Flux-Residual
  Residual-Control   Outer-Iter.   Inner-Iter.     Column Row Layer    Maximum-Head-Change  Column Row Layer    Maximum-Flux-Residual          L2-NORM 
          0                 1           2             2    2     1       0.6755478793E-02       2    2    1         0.3525960373E+00      0.7570065276E+00
          0                 2           2             2    2     1      -0.3032112908E-03       2    2    1        -0.1598037491E-01      0.4586456683E-01
          0                 3           1             5    7     1       0.2390019116E-04       5    6    1         0.1301825248E-02      0.3284475244E-02

    ------------------------------------------------
       NWT REQUIRED            3 OUTER ITERATIONS 
       AND A TOTAL OF          5 INNER ITERATIONS.
    ------------------------------------------------

 NO OUTPUT CONTROL FOR STRESS PERIOD    5   TIME STEP   27
 
 SOLVING FOR HEAD 
                                                   Max.-Head-Change                         Max.-Flux-Residual
  Residual-Control   Outer-Iter.   Inner-Iter.     Column Row Layer    Maximum-Head-Change  Column Row Layer    Maximum-Flux-Residual          L2-NORM 
          0                 1           2             2    2     1       0.6719054335E-02       2    2    1         0.3506807670E+00      0.7482297673E+00
          0                 2           2             2    2     1      -0.3015589503E-03       2    2    1        -0.1589279734E-01      0.4511336787E-01
          0                 3           1             5    7     1       0.2346310205E-04       5    7    1         0.1265981320E-02      0.3217368170E-02

    ------------------------------------------------
       NWT REQUIRED            3 OUTER ITERATIONS 
       AND A TOTAL OF          5 INNER ITERATIONS.
    ------------------------------------------------

 NO OUTPUT CONTROL FOR STRESS PERIOD    5   TIME STEP   28
 
 SOLVING FOR HEAD 
                                                   Max.-Head-Change                         Max.-Flux-Residual
  Residual-Control   Outer-Iter.   Inner-Iter.     Column Row Layer    Maximum-Head-Change  Column Row Layer    Maximum-Flux-Residual          L2-NORM 
          0                 1           2             2    2     1       0.6135678665E-02       2    2    1         0.3201500017E+00      0.7026633363E+00
          0                 2           2             4   13     1       0.7809490211E-03       4   13    1         0.4562711213E-01      0.8593851425E-01
          0                 3           1             4   13     1      -0.6893760923E-04       4   13    1        -0.4064447507E-02      0.7121094231E-02

    ------------------------------------------------
       NWT REQUIRED            3 OUTER ITERATIONS 
       AND A TOTAL OF          5 INNER ITERATIONS.
    ------------------------------------------------

 NO OUTPUT CONTROL FOR STRESS PERIOD    5   TIME STEP   29
 
 SOLVING FOR HEAD 
                                                   Max.-Head-Change                         Max.-Flux-Residual
  Residual-Control   Outer-Iter.   Inner-Iter.     Column Row Layer    Maximum-Head-Change  Column Row Layer    Maximum-Flux-Residual          L2-NORM 
          0                 1           2             4   13     1      -0.2375369693E-01       4   13    1        -0.1362161663E+01      0.2372648961E+01
          0                 2           2             4   13     1       0.9040748626E-02       4   13    1         0.5240919043E+00      0.9079104877E+00
          0                 3           2             4   13     1      -0.7854484244E-03       4   13    1        -0.4595815890E-01      0.8665246870E-01
          0                 4           1             4   13     1       0.6162797080E-04       4   13    1         0.3639656749E-02      0.6191717892E-02

    ------------------------------------------------
       NWT REQUIRED            4 OUTER ITERATIONS 
       AND A TOTAL OF          7 INNER ITERATIONS.
    ------------------------------------------------

 NO OUTPUT CONTROL FOR STRESS PERIOD    5   TIME STEP   30



 STREAM LISTING     PERIOD      5   STEP       30

 LAYER ROW COL. STREAM  RCH.  FLOW INTO     FLOW TO   FLOW OUT OF   OVRLND.     DIRECT     STREAM       STREAM     STREAM     STREAM   STREAMBED  STREAMBED
                SEG.NO.  NO.  STRM. RCH.    AQUIFER    STRM. RCH.    RUNOFF     PRECIP       ET          HEAD       DEPTH      WIDTH   CONDCTNC.   GRADIENT

   1    1    1     1     1    2.8000E+01  2.5860E-01   2.7741E+01  0.000E+00  0.000E+00  0.000E+00  1.09427E+03  1.221E+00  1.361E+01  6.126E-02  1.407E+00
   1    2    2     1     2    2.7741E+01  4.0002E-01   2.7341E+01  0.000E+00  0.000E+00  0.000E+00  1.08928E+03  1.217E+00  1.355E+01  9.487E-02  1.406E+00
   1    3    3     1     3    2.7341E+01  3.4070E-01   2.7001E+01  0.000E+00  0.000E+00  0.000E+00  1.08363E+03  1.212E+00  1.348E+01  8.090E-02  1.404E+00
   1    3    4     1     4    2.7001E+01  3.1335E-01   2.6687E+01  0.000E+00  0.000E+00  0.000E+00  1.07861E+03  1.207E+00  1.342E+01  7.448E-02  1.402E+00
   1    4    5     2     1    2.4687E+01  3.2711E-01   2.4360E+01  0.000E+00  0.000E+00  0.000E+00  1.07313E+03  1.194E+00  1.200E+01  7.800E-02  1.398E+00
   1    5    6     2     2    2.4360E+01  2.5111E-01   2.4109E+01  0.000E+00  0.000E+00  0.000E+00  1.06769E+03  1.185E+00  1.200E+01  6.000E-02  1.395E+00
   1    6    6     2     3    2.4109E+01  2.5067E-01   2.3858E+01  0.000E+00  0.000E+00  0.000E+00  1.06297E+03  1.178E+00  1.200E+01  6.000E-02  1.393E+00
   1    7    6     2     4    2.3858E+01  2.5023E-01   2.3608E+01  0.000E+00  0.000E+00  0.000E+00  1.05825E+03  1.170E+00  1.200E+01  6.000E-02  1.390E+00
   1    8    6     2     5    2.3608E+01  2.4978E-01   2.3358E+01  0.000E+00  0.000E+00  0.000E+00  1.05352E+03  1.163E+00  1.200E+01  6.000E-02  1.388E+00
   1    3    5     3     1    2.0000E+00  2.8252E-01   1.7175E+00  0.000E+00  0.000E+00  0.000E+00  1.07555E+03  1.909E+00  9.636E+00  7.227E-02  1.955E+00
   1    3    6     3     2    1.7175E+00  2.4905E-01   1.4684E+00  0.000E+00  0.000E+00  0.000E+00  1.07264E+03  1.727E+00  8.909E+00  6.682E-02  1.864E+00
   1    3    7     3     3    1.4684E+00  1.9718E-01   1.2712E+00  0.000E+00  0.000E+00  0.000E+00  1.06987E+03  1.555E+00  8.218E+00  5.547E-02  1.777E+00
   1    4    8     3     4    1.2712E+00  2.2567E-01   1.0456E+00  0.000E+00  0.000E+00  0.000E+00  1.06682E+03  1.364E+00  7.455E+00  6.709E-02  1.682E+00
   1    5    8     3     5    1.0456E+00  1.5790E-01   8.8768E-01  0.000E+00  0.000E+00  0.000E+00  1.06362E+03  1.164E+00  6.655E+00  4.991E-02  1.582E+00
   1    6    8     3     6    8.8768E-01  5.5980E-02   8.3170E-01  0.000E+00  0.000E+00  0.000E+00  1.06158E+03  1.036E+00  6.145E+00  1.844E-02  1.518E+00
   1    5   10     4     1    1.0000E+01  9.0919E-02   9.9091E+00  0.000E+00  0.000E+00  0.000E+00  1.07836E+03  6.368E-01  1.000E+01  2.500E-02  1.212E+00
   1    5    9     4     2    9.9091E+00  1.8158E-01   9.7275E+00  0.000E+00  0.000E+00  0.000E+00  1.07154E+03  6.315E-01  1.000E+01  5.000E-02  1.211E+00
   1    6    8     4     3    9.7275E+00  1.2689E-01   9.6006E+00  0.000E+00  0.000E+00  0.000E+00  1.06381E+03  6.256E-01  1.000E+01  3.500E-02  1.209E+00
   1    6    8     5     1    1.0432E+01  2.2686E-01   1.0205E+01  0.000E+00  0.000E+00  0.000E+00  1.05868E+03  6.790E-01  1.542E+01  6.166E-02  1.226E+00
   1    7    7     5     2    1.0205E+01  2.7894E-01   9.9265E+00  0.000E+00  0.000E+00  0.000E+00  1.05417E+03  6.732E-01  1.519E+01  7.594E-02  1.224E+00
   1    8    7     5     3    9.9265E+00  1.9221E-01   9.7343E+00  0.000E+00  0.000E+00  0.000E+00  1.04992E+03  6.676E-01  1.497E+01  5.241E-02  1.223E+00
   1    8    6     5     4    9.7343E+00  1.3577E-01   9.5985E+00  0.000E+00  0.000E+00  0.000E+00  1.04691E+03  6.637E-01  1.482E+01  3.706E-02  1.221E+00
   1    9    6     6     1    3.2027E+01  2.6479E-01   3.1763E+01  0.000E+00  0.000E+00  0.000E+00  1.04414E+03  1.413E+00  1.200E+01  6.000E-02  1.471E+00
   1   10    7     6     2    3.1763E+01  2.6437E-01   3.1498E+01  0.000E+00  0.000E+00  0.000E+00  1.03959E+03  1.406E+00  1.200E+01  6.000E-02  1.469E+00
   1   11    7     6     3    3.1498E+01  2.6395E-01   3.1234E+01  0.000E+00  0.000E+00  0.000E+00  1.03504E+03  1.399E+00  1.200E+01  6.000E-02  1.466E+00
   1   12    7     6     4    3.1234E+01  2.6352E-01   3.0971E+01  0.000E+00  0.000E+00  0.000E+00  1.03048E+03  1.392E+00  1.200E+01  6.000E-02  1.464E+00
   1   13    7     6     5    3.0971E+01  3.9849E-03   3.0967E+01  0.000E+00  0.000E+00  0.000E+00  1.02730E+03  1.388E+00  1.200E+01  2.400E-02  5.535E-02
   1   14    9     7     1    1.5000E+02  1.3377E+00   1.4866E+02  0.000E+00  0.000E+00  0.000E+00  1.03987E+03  2.288E+00  5.529E+01  5.593E-01  7.972E-01
   1   13    8     7     2    1.4866E+02  1.8292E+00   1.4683E+02  0.000E+00  0.000E+00  0.000E+00  1.03478E+03  2.279E+00  5.526E+01  6.148E-01  9.918E-01
   1   13    7     7     3    1.4683E+02  1.4288E+00   1.4540E+02  0.000E+00  0.000E+00  0.000E+00  1.02969E+03  2.271E+00  5.522E+01  5.585E-01  8.528E-01
   1   13    6     8     1    1.7637E+02  8.7867E-01   1.7549E+02  0.000E+00  0.000E+00  0.000E+00  1.02487E+03  2.990E+00  4.336E+01  4.419E-01  6.629E-01
   1   13    5     8     2    1.7549E+02  1.2145E-01   1.7537E+02  0.000E+00  0.000E+00  0.000E+00  1.01861E+03  2.987E+00  4.331E+01  4.414E-01  9.172E-02
   1   13    4     8     3    1.7537E+02 -3.1979E+00   1.7857E+02  0.000E+00  0.000E+00  0.000E+00  1.01237E+03  2.997E+00  4.346E+01  4.428E+00 -2.407E-01
   1   13    3     8     4    1.7857E+02 -4.3209E+00   1.8289E+02  0.000E+00  0.000E+00  0.000E+00  1.00615E+03  3.021E+00  4.380E+01  4.463E+00 -3.227E-01
   1   13    2     8     5    1.8289E+02 -3.3112E+00   1.8620E+02  0.000E+00  0.000E+00  0.000E+00  9.99919E+02  3.045E+00  4.415E+01  4.499E+00 -2.454E-01
   1   13    1     8     6    1.8620E+02 -2.3119E+00   1.8851E+02  0.000E+00  0.000E+00  0.000E+00  9.94937E+02  3.062E+00  4.440E+01  2.714E+00 -2.839E-01
   1    6    8     9     1    9.2949E-01  0.0000E+00   9.2949E-01  0.000E+00  0.000E+00  0.000E+00  1.07863E+03  1.296E-01  4.000E+00  0.000E+00  1.043E+00





UNSATURATED ZONE PACKAGE VOLUMETRIC BUDGET FOR  TIME STEP    30 STRESS PERIOD    5
  ------------------------------------------------------------------------------



     CUMULATIVE VOLUMES      L**3       RATES FOR THIS TIME STEP      L**3/T
     ------------------                 ------------------------

           IN:                                      IN:
           ---                                      ---
        INFILTRATION =    11146203.6328          INFILTRATION =           0.9295

          OUT:                                     OUT:
          ----                                     ----
              UZF ET =      702170.4690                UZF ET =           0.3349
        UZF RECHARGE =     1314592.7876          UZF RECHARGE =           0.0845

            IN - OUT =     9129440.3763              IN - OUT =           0.5101

          STORAGE:                                 STORAGE:
          --------                                 --------
      STORAGE CHANGE =     9130594.8869        STORAGE CHANGE =           0.5100

 PERCENT DISCREPANCY IS DIFFERENCE BETWEEN IN-OUT MINUS CHANGE IN STORAGE
 DIVIDED BY THE AVERAGE OF IN AND OUT TIMES 100

 PERCENT DISCREPANCY =          -0.00     PERCENT DISCREPANCY =           0.01






1
  VOLUMETRIC BUDGET FOR ENTIRE MODEL AT END OF TIME STEP   30, STRESS PERIOD   5
  ------------------------------------------------------------------------------

     CUMULATIVE VOLUMES      L**3       RATES FOR THIS TIME STEP      L**3/T
     ------------------                 ------------------------

           IN:                                      IN:
           ---                                      ---
    AWU WELLS            =     7134365.5000      AWU WELLS            =           0.0000
    DIVERSION SEGMENTS   =     3938614.0000      DIVERSION SEGMENTS   =           0.9295
    GW IRRIGATION        =           0.0000      GW IRRIGATION        =           0.0000
    SW IRRIGATION        =           0.0000      SW IRRIGATION        =           0.0000
    EFFICIENCY FACTOR GW =           0.0000      EFFICIENCY FACTOR GW =           0.0000
    EFFICIENCY FACTOR SW =           0.0000      EFFICIENCY FACTOR SW =           0.0000

                TOTAL IN =    11072980.0000                  TOTAL IN =           0.9295

          OUT:                                     OUT:
          ----                                     ----
    AWU WELLS            =           0.0000      AWU WELLS            =           0.0000
    DIVERSION SEGMENTS   =           0.0000      DIVERSION SEGMENTS   =           0.0000
    GW IRRIGATION        =     7134365.5000      GW IRRIGATION        =           0.0000
    SW IRRIGATION        =     3938614.0000      SW IRRIGATION        =           0.9295
    EFFICIENCY FACTOR GW =           0.0000      EFFICIENCY FACTOR GW =           0.0000
    EFFICIENCY FACTOR SW =           0.0000      EFFICIENCY FACTOR SW =           0.0000

               TOTAL OUT =    11072980.0000                 TOTAL OUT =           0.9295

                IN - OUT =           0.0000                  IN - OUT =           0.0000

     PERCENT DISCREPANCY =           0.00         PERCENT DISCREPANCY =           0.00



1
  VOLUMETRIC BUDGET FOR ENTIRE MODEL AT END OF TIME STEP   30, STRESS PERIOD   5
  ------------------------------------------------------------------------------

     CUMULATIVE VOLUMES      L**3       RATES FOR THIS TIME STEP      L**3/T
     ------------------                 ------------------------

           IN:                                      IN:
           ---                                      ---
             STORAGE     =    14650452.0000               STORAGE     =           4.0166
       CONSTANT HEAD     =           0.0000         CONSTANT HEAD     =           0.0000
     HEAD DEP BOUNDS     =     3029292.7500       HEAD DEP BOUNDS     =           0.2859
      STREAM LEAKAGE     =   127318432.0000        STREAM LEAKAGE     =          11.6994
        UZF RECHARGE     =     1314593.2500          UZF RECHARGE     =       8.4456E-02
               GW ET     =           0.0000                 GW ET     =           0.0000
     SURFACE LEAKAGE     =           0.0000       SURFACE LEAKAGE     =           0.0000
    AWU WELLS            =           0.0000      AWU WELLS            =           0.0000

                TOTAL IN =   146312768.0000                  TOTAL IN =          16.0864

          OUT:                                     OUT:
          ----                                     ----
             STORAGE     =    26769574.0000               STORAGE     =           2.1119
       CONSTANT HEAD     =           0.0000         CONSTANT HEAD     =           0.0000
     HEAD DEP BOUNDS     =     3073644.5000       HEAD DEP BOUNDS     =           0.2960
      STREAM LEAKAGE     =   107774080.0000        STREAM LEAKAGE     =          13.1420
        UZF RECHARGE     =           0.0000          UZF RECHARGE     =           0.0000
               GW ET     =     1568334.8750                 GW ET     =           0.5374
     SURFACE LEAKAGE     =           0.0000       SURFACE LEAKAGE     =           0.0000
    AWU WELLS            =     7134365.5000      AWU WELLS            =           0.0000

               TOTAL OUT =   146320000.0000                 TOTAL OUT =          16.0873

                IN - OUT =       -7232.0000                  IN - OUT =      -9.6893E-04

     PERCENT DISCREPANCY =          -0.00         PERCENT DISCREPANCY =          -0.01






         TIME SUMMARY AT END OF TIME STEP   30 IN STRESS PERIOD    5
                    SECONDS     MINUTES      HOURS       DAYS        YEARS
                    -----------------------------------------------------------
   TIME STEP LENGTH  87600.      1460.0      24.333      1.0139     2.77588E-03
 STRESS PERIOD TIME 2.62800E+06  43800.      730.00      30.417     8.32763E-02
         TOTAL TIME 1.05984E+07 1.76640E+05  2944.0      122.67     0.33584    
1
1
                            STRESS PERIOD NO.    6, LENGTH =   2628000.    
                            -----------------------------------------------

                              NUMBER OF TIME STEPS =    30

                               MULTIPLIER FOR DELT =     1.000

                            INITIAL TIME STEP SIZE =   87600.00    

 REUSING NON-PARAMETER GHB CELLS FROM LAST STRESS PERIOD

      2 GHB CELLS

 REUSING STREAM SEGMENT DATA FROM LAST STRESS PERIOD



            AREAL INFILTRATION RATE
 READING ON UNIT   19 WITH FORMAT: (10F4.0)            

            1           2           3           4           5           6           7           8           9          10
 ........................................................................................................................
   1    0.000       0.000       0.000       0.000       0.000       0.000       0.000       0.000       0.000       0.000    
   2    0.000       0.000       0.000       0.000       0.000       0.000       0.000       0.000       0.000       0.000    
   3    0.000       0.000       0.000       0.000       0.000       0.000       0.000       0.000       0.000       0.000    
   4    0.000       0.000       0.000       0.000       0.000       0.000       0.000       0.000       0.000       0.000    
   5    0.000       0.000       0.000       0.000       0.000       0.000       0.000       0.000       0.000       0.000    
   6    0.000       0.000       0.000       0.000       0.000       0.000       0.000       0.000       0.000       0.000    
   7    0.000       0.000       0.000       0.000       0.000       0.000       0.000       0.000       0.000       0.000    
   8    0.000       0.000       0.000       0.000       0.000       0.000       0.000       0.000       0.000       0.000    
   9    0.000       0.000       0.000       0.000       0.000       0.000       0.000       0.000       0.000       0.000    
  10    0.000       0.000       0.000       0.000       0.000       0.000       0.000       0.000       0.000       0.000    
  11    0.000       0.000       0.000       0.000       0.000       0.000       0.000       0.000       0.000       0.000    
  12    0.000       0.000       0.000       0.000       0.000       0.000       0.000       0.000       0.000       0.000    
  13    0.000       0.000       0.000       0.000       0.000       0.000       0.000       0.000       0.000       0.000    
  14    0.000       0.000       0.000       0.000       0.000       0.000       0.000       0.000       0.000       0.000    
  15    0.000       0.000       0.000       0.000       0.000       0.000       0.000       0.000       0.000       0.000    

                  ET RATE =  1.000000E-08

 USING ET EXTINCTION DEPTH FROM PREVIOUS STRESS PERIOD. CURRENT PERIOD IS:       6

 USING EXTINCTION WATER CONTENT FROM PREVIOUS STRESS PERIOD. CURRENT PERIOD IS:       6

 PROCESSING AWU STRESS PERIOD DATA

 READING AWU STRESS PERIOD DATA

 READING IRRIGATION STREAM

 READING IRRIGATION WELL

 READING SUPPLEMENTAL WEL

 END PROCESSING AWU STRESS PERIOD DATA OPTIONS
 
 SOLVING FOR HEAD 
                                                   Max.-Head-Change                         Max.-Flux-Residual
  Residual-Control   Outer-Iter.   Inner-Iter.     Column Row Layer    Maximum-Head-Change  Column Row Layer    Maximum-Flux-Residual          L2-NORM 
          0                 1           2             4   13     1      -0.2418686356E-01       4   13    1        -0.1385827236E+01      0.2438390813E+01
          0                 2           2             4   13     1       0.8804530808E-02       4   13    1         0.5103821962E+00      0.8859866770E+00
          0                 3           2             4   13     1      -0.7662712747E-03       4   13    1        -0.4483445784E-01      0.8283048797E-01
          0                 4           1             4   13     1       0.6003229387E-04       4   13    1         0.3545241214E-02      0.5961850972E-02

    ------------------------------------------------
       NWT REQUIRED            4 OUTER ITERATIONS 
       AND A TOTAL OF          7 INNER ITERATIONS.
    ------------------------------------------------

 NO OUTPUT CONTROL FOR STRESS PERIOD    6   TIME STEP    1
 
 SOLVING FOR HEAD 
                                                   Max.-Head-Change                         Max.-Flux-Residual
  Residual-Control   Outer-Iter.   Inner-Iter.     Column Row Layer    Maximum-Head-Change  Column Row Layer    Maximum-Flux-Residual          L2-NORM 
          0                 1           2             4   13     1      -0.2256088780E-01       4   13    1        -0.1292202469E+01      0.2304970299E+01
          0                 2           2             4   13     1       0.8696069316E-02       4   13    1         0.5040586651E+00      0.8776397926E+00
          0                 3           2             4   13     1      -0.7564580062E-03       4   13    1        -0.4425737028E-01      0.8221693974E-01
          0                 4           1             4   13     1       0.5920862461E-04       4   13    1         0.3496352347E-02      0.5900646801E-02

    ------------------------------------------------
       NWT REQUIRED            4 OUTER ITERATIONS 
       AND A TOTAL OF          7 INNER ITERATIONS.
    ------------------------------------------------

 NO OUTPUT CONTROL FOR STRESS PERIOD    6   TIME STEP    2
 
 SOLVING FOR HEAD 
                                                   Max.-Head-Change                         Max.-Flux-Residual
  Residual-Control   Outer-Iter.   Inner-Iter.     Column Row Layer    Maximum-Head-Change  Column Row Layer    Maximum-Flux-Residual          L2-NORM 
          0                 1           2             4   13     1      -0.2109677109E-01       4   13    1        -0.1207926398E+01      0.2183258498E+01
          0                 2           2             4   13     1       0.8599432993E-02       4   13    1         0.4984266207E+00      0.8700780886E+00
          0                 3           2             4   13     1      -0.7478099617E-03       4   13    1        -0.4374900898E-01      0.8167643222E-01
          0                 4           1             4   13     1       0.5856112257E-04       4   13    1         0.3457964521E-02      0.5850130300E-02

    ------------------------------------------------
       NWT REQUIRED            4 OUTER ITERATIONS 
       AND A TOTAL OF          7 INNER ITERATIONS.
    ------------------------------------------------

 NO OUTPUT CONTROL FOR STRESS PERIOD    6   TIME STEP    3
 
 SOLVING FOR HEAD 
                                                   Max.-Head-Change                         Max.-Flux-Residual
  Residual-Control   Outer-Iter.   Inner-Iter.     Column Row Layer    Maximum-Head-Change  Column Row Layer    Maximum-Flux-Residual          L2-NORM 
          0                 1           2             4   13     1      -0.1977807485E-01       4   13    1        -0.1132047043E+01      0.2072148550E+01
          0                 2           2             4   13     1       0.8513277533E-02       4   13    1         0.4934072536E+00      0.8632228474E+00
          0                 3           2             4   13     1      -0.7400297542E-03       4   13    1        -0.4329181294E-01      0.8118951671E-01
          0                 4           1             4   13     1       0.5794899733E-04       4   13    1         0.3421673099E-02      0.5802574448E-02

    ------------------------------------------------
       NWT REQUIRED            4 OUTER ITERATIONS 
       AND A TOTAL OF          7 INNER ITERATIONS.
    ------------------------------------------------

 NO OUTPUT CONTROL FOR STRESS PERIOD    6   TIME STEP    4
 
 SOLVING FOR HEAD 
                                                   Max.-Head-Change                         Max.-Flux-Residual
  Residual-Control   Outer-Iter.   Inner-Iter.     Column Row Layer    Maximum-Head-Change  Column Row Layer    Maximum-Flux-Residual          L2-NORM 
          0                 1           2             4   13     1      -0.1859003342E-01       4   13    1        -0.1063709865E+01      0.1970639166E+01
          0                 2           2             4   13     1       0.8436580625E-02       4   13    1         0.4889407187E+00      0.8570082707E+00
          0                 3           2             4   13     1      -0.7331186543E-03       4   13    1        -0.4288585136E-01      0.8075613488E-01
          0                 4           1             4   13     1       0.5754392811E-04       4   13    1         0.3397727741E-02      0.5764093661E-02

    ------------------------------------------------
       NWT REQUIRED            4 OUTER ITERATIONS 
       AND A TOTAL OF          7 INNER ITERATIONS.
    ------------------------------------------------

 NO OUTPUT CONTROL FOR STRESS PERIOD    6   TIME STEP    5
 
 SOLVING FOR HEAD 
                                                   Max.-Head-Change                         Max.-Flux-Residual
  Residual-Control   Outer-Iter.   Inner-Iter.     Column Row Layer    Maximum-Head-Change  Column Row Layer    Maximum-Flux-Residual          L2-NORM 
          0                 1           2             2   13     1      -0.1555890921E-01       4   13    1        -0.8890430231E+00      0.1686490137E+01
          0                 2           2             4   13     1       0.6203830807E-02       4   13    1         0.3594899262E+00      0.6333852106E+00
          0                 3           2             7   13     1      -0.6013003823E-03       7   13    1        -0.3303323619E-01      0.6331804510E-01
          0                 4           1             4   13     1       0.4192780255E-04       4   13    1         0.2475220918E-02      0.4272411676E-02

    ------------------------------------------------
       NWT REQUIRED            4 OUTER ITERATIONS 
       AND A TOTAL OF          7 INNER ITERATIONS.
    ------------------------------------------------

 NO OUTPUT CONTROL FOR STRESS PERIOD    6   TIME STEP    6
 
 SOLVING FOR HEAD 
                                                   Max.-Head-Change                         Max.-Flux-Residual
  Residual-Control   Outer-Iter.   Inner-Iter.     Column Row Layer    Maximum-Head-Change  Column Row Layer    Maximum-Flux-Residual          L2-NORM 
          0                 1           2             2   13     1      -0.9558251030E-02       2   13    1        -0.5382504399E+00      0.1093165259E+01
          0                 2           2             2   13     1       0.9080994409E-03       4   13    1         0.5200228719E-01      0.1043857502E+00
          0                 3           1             4   13     1      -0.7940679701E-04       4   13    1        -0.4632825523E-02      0.9102212273E-02

    ------------------------------------------------
       NWT REQUIRED            3 OUTER ITERATIONS 
       AND A TOTAL OF          5 INNER ITERATIONS.
    ------------------------------------------------

 NO OUTPUT CONTROL FOR STRESS PERIOD    6   TIME STEP    7
 
 SOLVING FOR HEAD 
                                                   Max.-Head-Change                         Max.-Flux-Residual
  Residual-Control   Outer-Iter.   Inner-Iter.     Column Row Layer    Maximum-Head-Change  Column Row Layer    Maximum-Flux-Residual          L2-NORM 
          0                 1           2             2   13     1      -0.8849468363E-02       2   13    1        -0.4982817941E+00      0.1020644819E+01
          0                 2           2             2   13     1       0.8409753836E-03       2   13    1         0.4777058237E-01      0.9722993317E-01
          0                 3           1             4   13     1      -0.7208887946E-04       4   13    1        -0.4203298737E-02      0.8475707108E-02

    ------------------------------------------------
       NWT REQUIRED            3 OUTER ITERATIONS 
       AND A TOTAL OF          5 INNER ITERATIONS.
    ------------------------------------------------

 NO OUTPUT CONTROL FOR STRESS PERIOD    6   TIME STEP    8
 
 SOLVING FOR HEAD 
                                                   Max.-Head-Change                         Max.-Flux-Residual
  Residual-Control   Outer-Iter.   Inner-Iter.     Column Row Layer    Maximum-Head-Change  Column Row Layer    Maximum-Flux-Residual          L2-NORM 
          0                 1           2             2   13     1      -0.8194014822E-02       2   13    1        -0.4613233329E+00      0.9546097516E+00
          0                 2           2             2   13     1       0.7788856168E-03       2   13    1         0.4423853834E-01      0.9070202464E-01
          0                 3           1             2   13     1      -0.6626719946E-04       4   13    1        -0.3818797467E-02      0.7904568229E-02

    ------------------------------------------------
       NWT REQUIRED            3 OUTER ITERATIONS 
       AND A TOTAL OF          5 INNER ITERATIONS.
    ------------------------------------------------

 NO OUTPUT CONTROL FOR STRESS PERIOD    6   TIME STEP    9
 
 SOLVING FOR HEAD 
                                                   Max.-Head-Change                         Max.-Flux-Residual
  Residual-Control   Outer-Iter.   Inner-Iter.     Column Row Layer    Maximum-Head-Change  Column Row Layer    Maximum-Flux-Residual          L2-NORM 
          0                 1           2             2   13     1      -0.7587760634E-02       2   13    1        -0.4271416707E+00      0.8944531824E+00
          0                 2           2             2   13     1       0.7214338884E-03       2   13    1         0.4097057968E-01      0.8474105434E-01
          0                 3           1             2   13     1      -0.6138310943E-04       2   13    1        -0.3517271356E-02      0.7383152192E-02

    ------------------------------------------------
       NWT REQUIRED            3 OUTER ITERATIONS 
       AND A TOTAL OF          5 INNER ITERATIONS.
    ------------------------------------------------

 NO OUTPUT CONTROL FOR STRESS PERIOD    6   TIME STEP   10
 
 SOLVING FOR HEAD 
                                                   Max.-Head-Change                         Max.-Flux-Residual
  Residual-Control   Outer-Iter.   Inner-Iter.     Column Row Layer    Maximum-Head-Change  Column Row Layer    Maximum-Flux-Residual          L2-NORM 
          0                 1           2             2   13     1      -0.7027095080E-02       2   13    1        -0.3955329076E+00      0.8396595106E+00
          0                 2           2             2   13     1       0.6682864512E-03       2   13    1         0.3794771716E-01      0.7929547574E-01
          0                 3           1             2   13     1      -0.5688355009E-04       2   13    1        -0.3259044644E-02      0.6906410108E-02

    ------------------------------------------------
       NWT REQUIRED            3 OUTER ITERATIONS 
       AND A TOTAL OF          5 INNER ITERATIONS.
    ------------------------------------------------

 NO OUTPUT CONTROL FOR STRESS PERIOD    6   TIME STEP   11
 
 SOLVING FOR HEAD 
                                                   Max.-Head-Change                         Max.-Flux-Residual
  Residual-Control   Outer-Iter.   Inner-Iter.     Column Row Layer    Maximum-Head-Change  Column Row Layer    Maximum-Flux-Residual          L2-NORM 
          0                 1           2             2   13     1      -0.6508491533E-02       2   13    1        -0.3662977322E+00      0.7897379185E+00
          0                 2           2             2   13     1       0.6191266163E-03       2   13    1         0.3515188385E-01      0.7431597258E-01
          0                 3           1             2   13     1      -0.5272161606E-04       2   13    1        -0.3020215387E-02      0.6470292787E-02

    ------------------------------------------------
       NWT REQUIRED            3 OUTER ITERATIONS 
       AND A TOTAL OF          5 INNER ITERATIONS.
    ------------------------------------------------

 NO OUTPUT CONTROL FOR STRESS PERIOD    6   TIME STEP   12
 
 SOLVING FOR HEAD 
                                                   Max.-Head-Change                         Max.-Flux-Residual
  Residual-Control   Outer-Iter.   Inner-Iter.     Column Row Layer    Maximum-Head-Change  Column Row Layer    Maximum-Flux-Residual          L2-NORM 
          0                 1           2             2   13     1      -0.9134258469E-02       2   13    1        -0.5137791263E+00      0.1030486115E+01
          0                 2           2             4   13     1       0.3401117851E-02       4   13    1         0.1969586286E+00      0.3557530716E+00
          0                 3           2             7   13     1      -0.6153977237E-03       7   13    1        -0.3384776449E-01      0.4499393438E-01
          0                 4           1             7   13     1       0.2647484537E-04       7   13    1         0.1468453652E-02      0.2716072687E-02

    ------------------------------------------------
       NWT REQUIRED            4 OUTER ITERATIONS 
       AND A TOTAL OF          7 INNER ITERATIONS.
    ------------------------------------------------

 NO OUTPUT CONTROL FOR STRESS PERIOD    6   TIME STEP   13
 
 SOLVING FOR HEAD 
                                                   Max.-Head-Change                         Max.-Flux-Residual
  Residual-Control   Outer-Iter.   Inner-Iter.     Column Row Layer    Maximum-Head-Change  Column Row Layer    Maximum-Flux-Residual          L2-NORM 
          0                 1           2             2   13     1      -0.1280388000E-01       2   13    1        -0.7193037103E+00      0.1384780725E+01
          0                 2           2             4   13     1       0.8045258472E-02       4   13    1         0.4661808829E+00      0.8222861359E+00
          0                 3           2             4   13     1      -0.6977340156E-03       4   13    1        -0.4080665292E-01      0.7868314915E-01
          0                 4           1             4   13     1       0.5458820400E-04       4   13    1         0.3222325004E-02      0.5694854812E-02

    ------------------------------------------------
       NWT REQUIRED            4 OUTER ITERATIONS 
       AND A TOTAL OF          7 INNER ITERATIONS.
    ------------------------------------------------

 NO OUTPUT CONTROL FOR STRESS PERIOD    6   TIME STEP   14
 
 SOLVING FOR HEAD 
                                                   Max.-Head-Change                         Max.-Flux-Residual
  Residual-Control   Outer-Iter.   Inner-Iter.     Column Row Layer    Maximum-Head-Change  Column Row Layer    Maximum-Flux-Residual          L2-NORM 
          0                 1           2             2   13     1      -0.1236836947E-01       2   13    1        -0.6948207678E+00      0.1340157392E+01
          0                 2           2             4   13     1       0.8019645349E-02       4   13    1         0.4646949180E+00      0.8197719707E+00
          0                 3           2             4   13     1      -0.6953975635E-03       4   13    1        -0.4066986795E-01      0.7863291268E-01
          0                 4           1             4   13     1       0.5441446343E-04       4   13    1         0.3212025175E-02      0.5761784753E-02

    ------------------------------------------------
       NWT REQUIRED            4 OUTER ITERATIONS 
       AND A TOTAL OF          7 INNER ITERATIONS.
    ------------------------------------------------

 NO OUTPUT CONTROL FOR STRESS PERIOD    6   TIME STEP   15
 
 SOLVING FOR HEAD 
                                                   Max.-Head-Change                         Max.-Flux-Residual
  Residual-Control   Outer-Iter.   Inner-Iter.     Column Row Layer    Maximum-Head-Change  Column Row Layer    Maximum-Flux-Residual          L2-NORM 
          0                 1           2             2   13     1      -0.1196591792E-01       2   13    1        -0.6721983854E+00      0.1299054085E+01
          0                 2           2             4   13     1       0.7997024018E-02       4   13    1         0.4633834039E+00      0.8174963734E+00
          0                 3           2             4   13     1      -0.6933197264E-03       4   13    1        -0.4054821054E-01      0.7861183559E-01
          0                 4           1             4   13     1       0.5424913537E-04       4   13    1         0.3202268291E-02      0.5847004852E-02

    ------------------------------------------------
       NWT REQUIRED            4 OUTER ITERATIONS 
       AND A TOTAL OF          7 INNER ITERATIONS.
    ------------------------------------------------

 NO OUTPUT CONTROL FOR STRESS PERIOD    6   TIME STEP   16
 
 SOLVING FOR HEAD 
                                                   Max.-Head-Change                         Max.-Flux-Residual
  Residual-Control   Outer-Iter.   Inner-Iter.     Column Row Layer    Maximum-Head-Change  Column Row Layer    Maximum-Flux-Residual          L2-NORM 
          0                 1           2             2   13     1      -0.1159392825E-01       2   13    1        -0.6512901461E+00      0.1261165641E+01
          0                 2           2             4   13     1       0.7977068339E-02       4   13    1         0.4622272803E+00      0.8154362320E+00
          0                 3           2             4   13     1      -0.6914883400E-03       4   13    1        -0.4044098229E-01      0.7861835265E-01
          0                 4           1             4   13     1       0.5408767816E-04       4   13    1         0.3192739922E-02      0.5952531892E-02

    ------------------------------------------------
       NWT REQUIRED            4 OUTER ITERATIONS 
       AND A TOTAL OF          7 INNER ITERATIONS.
    ------------------------------------------------

 NO OUTPUT CONTROL FOR STRESS PERIOD    6   TIME STEP   17
 
 SOLVING FOR HEAD 
                                                   Max.-Head-Change                         Max.-Flux-Residual
  Residual-Control   Outer-Iter.   Inner-Iter.     Column Row Layer    Maximum-Head-Change  Column Row Layer    Maximum-Flux-Residual          L2-NORM 
          0                 1           2             2   13     1      -0.1125017014E-01       2   13    1        -0.6319705603E+00      0.1226212702E+01
          0                 2           2             4   13     1       0.7960019369E-02       4   13    1         0.4612409482E+00      0.8135822551E+00
          0                 3           2             4   13     1      -0.6905293568E-03       4   13    1        -0.4038536551E-01      0.7866956787E-01
          0                 4           1             4   13     1       0.5403824489E-04       4   13    1         0.3189846959E-02      0.6084329455E-02

    ------------------------------------------------
       NWT REQUIRED            4 OUTER ITERATIONS 
       AND A TOTAL OF          7 INNER ITERATIONS.
    ------------------------------------------------

 NO OUTPUT CONTROL FOR STRESS PERIOD    6   TIME STEP   18
 
 SOLVING FOR HEAD 
                                                   Max.-Head-Change                         Max.-Flux-Residual
  Residual-Control   Outer-Iter.   Inner-Iter.     Column Row Layer    Maximum-Head-Change  Column Row Layer    Maximum-Flux-Residual          L2-NORM 
          0                 1           2             2   13     1      -0.1093244228E-01       2   13    1        -0.6141155278E+00      0.1193948309E+01
          0                 2           2             4   13     1       0.7942958855E-02       4   13    1         0.4602533628E+00      0.8117755241E+00
          0                 3           2             4   13     1      -0.6883731887E-03       4   13    1        -0.4025900182E-01      0.7858473293E-01
          0                 4           1             4   13     1       0.5393547098E-04       4   13    1         0.3183807001E-02      0.6114240315E-02

    ------------------------------------------------
       NWT REQUIRED            4 OUTER ITERATIONS 
       AND A TOTAL OF          7 INNER ITERATIONS.
    ------------------------------------------------

 NO OUTPUT CONTROL FOR STRESS PERIOD    6   TIME STEP   19
 
 SOLVING FOR HEAD 
                                                   Max.-Head-Change                         Max.-Flux-Residual
  Residual-Control   Outer-Iter.   Inner-Iter.     Column Row Layer    Maximum-Head-Change  Column Row Layer    Maximum-Flux-Residual          L2-NORM 
          0                 1           2             2   13     1      -0.6445336867E-02       2   13    1        -0.3624008874E+00      0.7662664055E+00
          0                 2           2             4   13     1       0.3208086658E-02       4   13    1         0.1857717959E+00      0.3358928009E+00
          0                 3           2             7   13     1      -0.6544752513E-03       7   13    1        -0.3600061763E-01      0.4549847184E-01
          0                 4           1             7   13     1       0.5192723817E-04       7   13    1         0.2883000288E-02      0.3589869008E-02

    ------------------------------------------------
       NWT REQUIRED            4 OUTER ITERATIONS 
       AND A TOTAL OF          7 INNER ITERATIONS.
    ------------------------------------------------

 NO OUTPUT CONTROL FOR STRESS PERIOD    6   TIME STEP   20
 
 SOLVING FOR HEAD 
                                                   Max.-Head-Change                         Max.-Flux-Residual
  Residual-Control   Outer-Iter.   Inner-Iter.     Column Row Layer    Maximum-Head-Change  Column Row Layer    Maximum-Flux-Residual          L2-NORM 
          0                 1           2             1   13     1      -0.3923317377E-02       1   13    1        -0.2141946239E+00      0.4821619741E+00
          0                 2           2             1   13     1       0.3794953975E-03       1   13    1         0.2090795318E-01      0.4302515455E-01
          0                 3           1             1   13     1      -0.3295600430E-04       1   13    1        -0.1832494313E-02      0.3721548031E-02

    ------------------------------------------------
       NWT REQUIRED            3 OUTER ITERATIONS 
       AND A TOTAL OF          5 INNER ITERATIONS.
    ------------------------------------------------

 NO OUTPUT CONTROL FOR STRESS PERIOD    6   TIME STEP   21
 
 SOLVING FOR HEAD 
                                                   Max.-Head-Change                         Max.-Flux-Residual
  Residual-Control   Outer-Iter.   Inner-Iter.     Column Row Layer    Maximum-Head-Change  Column Row Layer    Maximum-Flux-Residual          L2-NORM 
          0                 1           2             1   13     1      -0.3738115269E-02       1   13    1        -0.2041100556E+00      0.4641463450E+00
          0                 2           2             1   13     1       0.3617798726E-03       1   13    1         0.1993457993E-01      0.4112164019E-01
          0                 3           1             1   13     1      -0.3142799328E-04       1   13    1        -0.1747832767E-02      0.3547885734E-02

    ------------------------------------------------
       NWT REQUIRED            3 OUTER ITERATIONS 
       AND A TOTAL OF          5 INNER ITERATIONS.
    ------------------------------------------------

 NO OUTPUT CONTROL FOR STRESS PERIOD    6   TIME STEP   22
 
 SOLVING FOR HEAD 
                                                   Max.-Head-Change                         Max.-Flux-Residual
  Residual-Control   Outer-Iter.   Inner-Iter.     Column Row Layer    Maximum-Head-Change  Column Row Layer    Maximum-Flux-Residual          L2-NORM 
          0                 1           2             1   13     1      -0.3561042902E-02       1   13    1        -0.1944658839E+00      0.4476624492E+00
          0                 2           2             1   13     1       0.3448288589E-03       1   13    1         0.1900285473E-01      0.3937681597E-01
          0                 3           1             1   13     1      -0.2998123278E-04       1   13    1        -0.1667513259E-02      0.3396418967E-02

    ------------------------------------------------
       NWT REQUIRED            3 OUTER ITERATIONS 
       AND A TOTAL OF          5 INNER ITERATIONS.
    ------------------------------------------------

 NO OUTPUT CONTROL FOR STRESS PERIOD    6   TIME STEP   23
 
 SOLVING FOR HEAD 
                                                   Max.-Head-Change                         Max.-Flux-Residual
  Residual-Control   Outer-Iter.   Inner-Iter.     Column Row Layer    Maximum-Head-Change  Column Row Layer    Maximum-Flux-Residual          L2-NORM 
          0                 1           2             1   13     1      -0.3391778984E-02       1   13    1        -0.1852449016E+00      0.4325753298E+00
          0                 2           2             1   13     1       0.3286057228E-03       1   13    1         0.1811099594E-01      0.3776505474E-01
          0                 3           1             1   13     1      -0.2856591100E-04       1   13    1        -0.1588987531E-02      0.3251926375E-02

    ------------------------------------------------
       NWT REQUIRED            3 OUTER ITERATIONS 
       AND A TOTAL OF          5 INNER ITERATIONS.
    ------------------------------------------------

 NO OUTPUT CONTROL FOR STRESS PERIOD    6   TIME STEP   24
 
 SOLVING FOR HEAD 
                                                   Max.-Head-Change                         Max.-Flux-Residual
  Residual-Control   Outer-Iter.   Inner-Iter.     Column Row Layer    Maximum-Head-Change  Column Row Layer    Maximum-Flux-Residual          L2-NORM 
          0                 1           2             1   13     1      -0.3230051243E-02       1   13    1        -0.1764325562E+00      0.4187504585E+00
          0                 2           2             1   13     1       0.3131124360E-03       1   13    1         0.1725907217E-01      0.3627861621E-01
          0                 3           1             1   13     1      -0.2725825857E-04       1   13    1        -0.1516419461E-02      0.3120644019E-02

    ------------------------------------------------
       NWT REQUIRED            3 OUTER ITERATIONS 
       AND A TOTAL OF          5 INNER ITERATIONS.
    ------------------------------------------------

 NO OUTPUT CONTROL FOR STRESS PERIOD    6   TIME STEP   25
 
 SOLVING FOR HEAD 
                                                   Max.-Head-Change                         Max.-Flux-Residual
  Residual-Control   Outer-Iter.   Inner-Iter.     Column Row Layer    Maximum-Head-Change  Column Row Layer    Maximum-Flux-Residual          L2-NORM 
          0                 1           2             1   13     1      -0.3075535753E-02       1   13    1        -0.1680114555E+00      0.4060883232E+00
          0                 2           2             1   13     1       0.2982751285E-03       1   13    1         0.1644304127E-01      0.3490658087E-01
          0                 3           1             1   13     1      -0.2597367467E-04       1   13    1        -0.1445112337E-02      0.2997199628E-02

    ------------------------------------------------
       NWT REQUIRED            3 OUTER ITERATIONS 
       AND A TOTAL OF          5 INNER ITERATIONS.
    ------------------------------------------------

 NO OUTPUT CONTROL FOR STRESS PERIOD    6   TIME STEP   26
 
 SOLVING FOR HEAD 
                                                   Max.-Head-Change                         Max.-Flux-Residual
  Residual-Control   Outer-Iter.   Inner-Iter.     Column Row Layer    Maximum-Head-Change  Column Row Layer    Maximum-Flux-Residual          L2-NORM 
          0                 1           2             2   13     1      -0.7313238982E-02       2   13    1        -0.4110489668E+00      0.8360452393E+00
          0                 2           2             4   13     1       0.5632220034E-02       4   13    1         0.3263336698E+00      0.5768026272E+00
          0                 3           2             7   13     1      -0.6736090051E-03       7   13    1        -0.3701790155E-01      0.6129238570E-01
          0                 4           1             7   13     1       0.5343495597E-04       7   13    1         0.2964459041E-02      0.4789609013E-02

    ------------------------------------------------
       NWT REQUIRED            4 OUTER ITERATIONS 
       AND A TOTAL OF          7 INNER ITERATIONS.
    ------------------------------------------------

 NO OUTPUT CONTROL FOR STRESS PERIOD    6   TIME STEP   27
 
 SOLVING FOR HEAD 
                                                   Max.-Head-Change                         Max.-Flux-Residual
  Residual-Control   Outer-Iter.   Inner-Iter.     Column Row Layer    Maximum-Head-Change  Column Row Layer    Maximum-Flux-Residual          L2-NORM 
          0                 1           2             2   13     1      -0.9140920263E-02       2   13    1        -0.5135094101E+00      0.1010249835E+01
          0                 2           2             4   13     1       0.7876927634E-02       4   13    1         0.4564647148E+00      0.8029295044E+00
          0                 3           2             7   13     1      -0.6858455420E-03       4   13    1        -0.3989686113E-01      0.7824392295E-01
          0                 4           1             7   13     1       0.5439525228E-04       4   13    1         0.3150431226E-02      0.6086103692E-02

    ------------------------------------------------
       NWT REQUIRED            4 OUTER ITERATIONS 
       AND A TOTAL OF          7 INNER ITERATIONS.
    ------------------------------------------------

 NO OUTPUT CONTROL FOR STRESS PERIOD    6   TIME STEP   28
 
 SOLVING FOR HEAD 
                                                   Max.-Head-Change                         Max.-Flux-Residual
  Residual-Control   Outer-Iter.   Inner-Iter.     Column Row Layer    Maximum-Head-Change  Column Row Layer    Maximum-Flux-Residual          L2-NORM 
          0                 1           2             2    2     1       0.5031060935E-02       2    2    1         0.2624608386E+00      0.5779519386E+00
          0                 2           2             4   13     1       0.7083302392E-02       4   13    1         0.4084234356E+00      0.7187716760E+00
          0                 3           2             4   13     1      -0.6945212750E-03       4   13    1        -0.4042913003E-01      0.6878860111E-01
          0                 4           1             4   13     1       0.6122401505E-04       4   13    1         0.3598044850E-02      0.5922372003E-02

    ------------------------------------------------
       NWT REQUIRED            4 OUTER ITERATIONS 
       AND A TOTAL OF          7 INNER ITERATIONS.
    ------------------------------------------------

 NO OUTPUT CONTROL FOR STRESS PERIOD    6   TIME STEP   29
 
 SOLVING FOR HEAD 
                                                   Max.-Head-Change                         Max.-Flux-Residual
  Residual-Control   Outer-Iter.   Inner-Iter.     Column Row Layer    Maximum-Head-Change  Column Row Layer    Maximum-Flux-Residual          L2-NORM 
          0                 1           2             4   13     1       0.1754309082E-01       4   13    1         0.1015730478E+01      0.1884974005E+01
          0                 2           2             4   13     1       0.5853620923E-02       4   13    1         0.3391249571E+00      0.6009588388E+00
          0                 3           2             4   13     1      -0.5734516438E-03       4   13    1        -0.3353348163E-01      0.5798469869E-01
          0                 4           1             4   13     1       0.5049957935E-04       4   13    1         0.2980700656E-02      0.5025416485E-02

    ------------------------------------------------
       NWT REQUIRED            4 OUTER ITERATIONS 
       AND A TOTAL OF          7 INNER ITERATIONS.
    ------------------------------------------------

 NO OUTPUT CONTROL FOR STRESS PERIOD    6   TIME STEP   30



 STREAM LISTING     PERIOD      6   STEP       30

 LAYER ROW COL. STREAM  RCH.  FLOW INTO     FLOW TO   FLOW OUT OF   OVRLND.     DIRECT     STREAM       STREAM     STREAM     STREAM   STREAMBED  STREAMBED
                SEG.NO.  NO.  STRM. RCH.    AQUIFER    STRM. RCH.    RUNOFF     PRECIP       ET          HEAD       DEPTH      WIDTH   CONDCTNC.   GRADIENT

   1    1    1     1     1    9.9000E+01  4.7281E-01   9.8527E+01  0.000E+00  0.000E+00  0.000E+00  1.09484E+03  1.796E+00  2.191E+01  9.859E-02  1.599E+00
   1    2    2     1     2    9.8527E+01  7.3365E-01   9.7794E+01  0.000E+00  0.000E+00  0.000E+00  1.08985E+03  1.793E+00  2.187E+01  1.531E-01  1.598E+00
   1    3    3     1     3    9.7794E+01  6.2707E-01   9.7166E+01  0.000E+00  0.000E+00  0.000E+00  1.08421E+03  1.791E+00  2.181E+01  1.309E-01  1.597E+00
   1    3    4     1     4    9.7166E+01  5.7859E-01   9.6588E+01  0.000E+00  0.000E+00  0.000E+00  1.07920E+03  1.789E+00  2.177E+01  1.208E-01  1.596E+00
   1    4    5     2     1    9.4588E+01  4.4299E-01   9.4145E+01  0.000E+00  0.000E+00  0.000E+00  1.07461E+03  2.679E+00  1.200E+01  7.800E-02  1.893E+00
   1    5    6     2     2    9.4145E+01  3.4036E-01   9.3805E+01  0.000E+00  0.000E+00  0.000E+00  1.06918E+03  2.673E+00  1.200E+01  6.000E-02  1.891E+00
   1    6    6     2     3    9.3805E+01  3.4001E-01   9.3465E+01  0.000E+00  0.000E+00  0.000E+00  1.06446E+03  2.667E+00  1.200E+01  6.000E-02  1.889E+00
   1    7    6     2     4    9.3465E+01  3.3967E-01   9.3125E+01  0.000E+00  0.000E+00  0.000E+00  1.05974E+03  2.661E+00  1.200E+01  6.000E-02  1.887E+00
   1    8    6     2     5    9.3125E+01  3.3932E-01   9.2786E+01  0.000E+00  0.000E+00  0.000E+00  1.05501E+03  2.655E+00  1.200E+01  6.000E-02  1.885E+00
   1    3    5     3     1    2.0000E+00  2.8252E-01   1.7175E+00  0.000E+00  0.000E+00  0.000E+00  1.07555E+03  1.909E+00  9.636E+00  7.227E-02  1.955E+00
   1    3    6     3     2    1.7175E+00  2.4905E-01   1.4684E+00  0.000E+00  0.000E+00  0.000E+00  1.07264E+03  1.727E+00  8.909E+00  6.682E-02  1.864E+00
   1    3    7     3     3    1.4684E+00  1.9718E-01   1.2712E+00  0.000E+00  0.000E+00  0.000E+00  1.06987E+03  1.555E+00  8.218E+00  5.547E-02  1.777E+00
   1    4    8     3     4    1.2712E+00  2.2567E-01   1.0456E+00  0.000E+00  0.000E+00  0.000E+00  1.06682E+03  1.364E+00  7.455E+00  6.709E-02  1.682E+00
   1    5    8     3     5    1.0456E+00  1.5790E-01   8.8768E-01  0.000E+00  0.000E+00  0.000E+00  1.06362E+03  1.164E+00  6.655E+00  4.991E-02  1.582E+00
   1    6    8     3     6    8.8768E-01  5.5980E-02   8.3170E-01  0.000E+00  0.000E+00  0.000E+00  1.06158E+03  1.036E+00  6.145E+00  1.844E-02  1.518E+00
   1    5   10     4     1    1.0000E+01  9.0919E-02   9.9091E+00  0.000E+00  0.000E+00  0.000E+00  1.07836E+03  6.368E-01  1.000E+01  2.500E-02  1.212E+00
   1    5    9     4     2    9.9091E+00  1.8158E-01   9.7275E+00  0.000E+00  0.000E+00  0.000E+00  1.07154E+03  6.315E-01  1.000E+01  5.000E-02  1.211E+00
   1    6    8     4     3    9.7275E+00  1.2689E-01   9.6006E+00  0.000E+00  0.000E+00  0.000E+00  1.06381E+03  6.256E-01  1.000E+01  3.500E-02  1.209E+00
   1    6    8     5     1    1.0432E+01  2.2686E-01   1.0205E+01  0.000E+00  0.000E+00  0.000E+00  1.05868E+03  6.790E-01  1.542E+01  6.166E-02  1.226E+00
   1    7    7     5     2    1.0205E+01  2.7894E-01   9.9265E+00  0.000E+00  0.000E+00  0.000E+00  1.05417E+03  6.732E-01  1.519E+01  7.594E-02  1.224E+00
   1    8    7     5     3    9.9265E+00  1.9221E-01   9.7343E+00  0.000E+00  0.000E+00  0.000E+00  1.04992E+03  6.676E-01  1.497E+01  5.241E-02  1.223E+00
   1    8    6     5     4    9.7343E+00  1.3577E-01   9.5985E+00  0.000E+00  0.000E+00  0.000E+00  1.04691E+03  6.637E-01  1.482E+01  3.706E-02  1.221E+00
   1    9    6     6     1    1.0099E+02  3.4913E-01   1.0064E+02  0.000E+00  0.000E+00  0.000E+00  1.04555E+03  2.819E+00  1.200E+01  6.000E-02  1.940E+00
   1   10    7     6     2    1.0064E+02  3.4878E-01   1.0029E+02  0.000E+00  0.000E+00  0.000E+00  1.04099E+03  2.813E+00  1.200E+01  6.000E-02  1.938E+00
   1   11    7     6     3    1.0029E+02  3.4843E-01   9.9941E+01  0.000E+00  0.000E+00  0.000E+00  1.03644E+03  2.807E+00  1.200E+01  6.000E-02  1.936E+00
   1   12    7     6     4    9.9941E+01  3.4808E-01   9.9592E+01  0.000E+00  0.000E+00  0.000E+00  1.03189E+03  2.801E+00  1.200E+01  6.000E-02  1.934E+00
   1   13    7     6     5    9.9592E+01  3.7841E-02   9.9555E+01  0.000E+00  0.000E+00  0.000E+00  1.02871E+03  2.798E+00  1.200E+01  2.400E-02  5.256E-01
   1   14    9     7     1    1.5000E+02  1.3378E+00   1.4866E+02  0.000E+00  0.000E+00  0.000E+00  1.03987E+03  2.288E+00  5.529E+01  5.593E-01  7.973E-01
   1   13    8     7     2    1.4866E+02  1.8256E+00   1.4684E+02  0.000E+00  0.000E+00  0.000E+00  1.03478E+03  2.279E+00  5.526E+01  6.148E-01  9.898E-01
   1   13    7     7     3    1.4684E+02  1.4294E+00   1.4541E+02  0.000E+00  0.000E+00  0.000E+00  1.02969E+03  2.271E+00  5.522E+01  5.585E-01  8.532E-01
   1   13    6     8     1    2.4496E+02  1.2111E+00   2.4375E+02  0.000E+00  0.000E+00  0.000E+00  1.02526E+03  3.382E+00  4.905E+01  4.998E-01  8.077E-01
   1   13    5     8     2    2.4375E+02  3.6638E-01   2.4338E+02  0.000E+00  0.000E+00  0.000E+00  1.01900E+03  3.378E+00  4.899E+01  4.992E-01  2.446E-01
   1   13    4     8     3    2.4338E+02 -1.0498E+00   2.4443E+02  0.000E+00  0.000E+00  0.000E+00  1.01276E+03  3.380E+00  4.901E+01  4.995E+00 -7.006E-02
   1   13    3     8     4    2.4443E+02 -2.3423E+00   2.4678E+02  0.000E+00  0.000E+00  0.000E+00  1.00651E+03  3.389E+00  4.914E+01  5.008E+00 -1.559E-01
   1   13    2     8     5    2.4678E+02 -1.2057E+00   2.4798E+02  0.000E+00  0.000E+00  0.000E+00  1.00027E+03  3.398E+00  4.927E+01  5.021E+00 -8.004E-02
   1   13    1     8     6    2.4798E+02 -1.1240E+00   2.4911E+02  0.000E+00  0.000E+00  0.000E+00  9.95279E+02  3.404E+00  4.936E+01  3.018E+00 -1.242E-01
   1    6    8     9     1    1.3972E+00  0.0000E+00   1.3972E+00  0.000E+00  0.000E+00  0.000E+00  1.07867E+03  1.655E-01  4.000E+00  0.000E+00  1.055E+00





UNSATURATED ZONE PACKAGE VOLUMETRIC BUDGET FOR  TIME STEP    30 STRESS PERIOD    6
  ------------------------------------------------------------------------------



     CUMULATIVE VOLUMES      L**3       RATES FOR THIS TIME STEP      L**3/T
     ------------------                 ------------------------

           IN:                                      IN:
           ---                                      ---
        INFILTRATION =    13647281.4141          INFILTRATION =           1.3972

          OUT:                                     OUT:
          ----                                     ----
              UZF ET =     2629279.3030                UZF ET =           0.7766
        UZF RECHARGE =     1475638.6890          UZF RECHARGE =           0.1156

            IN - OUT =     9542363.4221              IN - OUT =           0.5050

          STORAGE:                                 STORAGE:
          --------                                 --------
      STORAGE CHANGE =     9544240.6533        STORAGE CHANGE =           0.5050

 PERCENT DISCREPANCY IS DIFFERENCE BETWEEN IN-OUT MINUS CHANGE IN STORAGE
 DIVIDED BY THE AVERAGE OF IN AND OUT TIMES 100

 PERCENT DISCREPANCY =          -0.00     PERCENT DISCREPANCY =          -0.00






1
  VOLUMETRIC BUDGET FOR ENTIRE MODEL AT END OF TIME STEP   30, STRESS PERIOD   6
  ------------------------------------------------------------------------------

     CUMULATIVE VOLUMES      L**3       RATES FOR THIS TIME STEP      L**3/T
     ------------------                 ------------------------

           IN:                                      IN:
           ---                                      ---
    AWU WELLS            =     7134365.5000      AWU WELLS            =           0.0000
    DIVERSION SEGMENTS   =     6439691.5000      DIVERSION SEGMENTS   =           1.3972
    GW IRRIGATION        =           0.0000      GW IRRIGATION        =           0.0000
    SW IRRIGATION        =           0.0000      SW IRRIGATION        =           0.0000
    EFFICIENCY FACTOR GW =           0.0000      EFFICIENCY FACTOR GW =           0.0000
    EFFICIENCY FACTOR SW =           0.0000      EFFICIENCY FACTOR SW =           0.0000

                TOTAL IN =    13574057.0000                  TOTAL IN =           1.3972

          OUT:                                     OUT:
          ----                                     ----
    AWU WELLS            =           0.0000      AWU WELLS            =           0.0000
    DIVERSION SEGMENTS   =           0.0000      DIVERSION SEGMENTS   =           0.0000
    GW IRRIGATION        =     7134365.5000      GW IRRIGATION        =           0.0000
    SW IRRIGATION        =     6439691.5000      SW IRRIGATION        =           1.3972
    EFFICIENCY FACTOR GW =           0.0000      EFFICIENCY FACTOR GW =           0.0000
    EFFICIENCY FACTOR SW =           0.0000      EFFICIENCY FACTOR SW =           0.0000

               TOTAL OUT =    13574057.0000                 TOTAL OUT =           1.3972

                IN - OUT =           0.0000                  IN - OUT =           0.0000

     PERCENT DISCREPANCY =           0.00         PERCENT DISCREPANCY =           0.00



1
  VOLUMETRIC BUDGET FOR ENTIRE MODEL AT END OF TIME STEP   30, STRESS PERIOD   6
  ------------------------------------------------------------------------------

     CUMULATIVE VOLUMES      L**3       RATES FOR THIS TIME STEP      L**3/T
     ------------------                 ------------------------

           IN:                                      IN:
           ---                                      ---
             STORAGE     =    20168280.0000               STORAGE     =           0.4444
       CONSTANT HEAD     =           0.0000         CONSTANT HEAD     =           0.0000
     HEAD DEP BOUNDS     =     3780611.5000       HEAD DEP BOUNDS     =           0.2859
      STREAM LEAKAGE     =   158466688.0000        STREAM LEAKAGE     =          14.2184
        UZF RECHARGE     =     1475639.1250          UZF RECHARGE     =           0.1156
               GW ET     =           0.0000                 GW ET     =           0.0000
     SURFACE LEAKAGE     =           0.0000       SURFACE LEAKAGE     =           0.0000
    AWU WELLS            =           0.0000      AWU WELLS            =           0.0000

                TOTAL IN =   183891216.0000                  TOTAL IN =          15.0643

          OUT:                                     OUT:
          ----                                     ----
             STORAGE     =    31606930.0000               STORAGE     =           8.0103
       CONSTANT HEAD     =           0.0000         CONSTANT HEAD     =           0.0000
     HEAD DEP BOUNDS     =     3841656.2500       HEAD DEP BOUNDS     =           0.2908
      STREAM LEAKAGE     =   136991536.0000        STREAM LEAKAGE     =           5.7218
        UZF RECHARGE     =           0.0000          UZF RECHARGE     =           0.0000
               GW ET     =     4324429.0000                 GW ET     =           1.0423
     SURFACE LEAKAGE     =           0.0000       SURFACE LEAKAGE     =           0.0000
    AWU WELLS            =     7134365.5000      AWU WELLS            =           0.0000

               TOTAL OUT =   183898928.0000                 TOTAL OUT =          15.0652

                IN - OUT =       -7712.0000                  IN - OUT =      -8.4400E-04

     PERCENT DISCREPANCY =          -0.00         PERCENT DISCREPANCY =          -0.01






         TIME SUMMARY AT END OF TIME STEP   30 IN STRESS PERIOD    6
                    SECONDS     MINUTES      HOURS       DAYS        YEARS
                    -----------------------------------------------------------
   TIME STEP LENGTH  87600.      1460.0      24.333      1.0139     2.77588E-03
 STRESS PERIOD TIME 2.62800E+06  43800.      730.00      30.417     8.32763E-02
         TOTAL TIME 1.32264E+07 2.20440E+05  3674.0      153.08     0.41912    
1
1
                            STRESS PERIOD NO.    7, LENGTH =   2628000.    
                            -----------------------------------------------

                              NUMBER OF TIME STEPS =    30

                               MULTIPLIER FOR DELT =     1.000

                            INITIAL TIME STEP SIZE =   87600.00    

 REUSING NON-PARAMETER GHB CELLS FROM LAST STRESS PERIOD

      2 GHB CELLS

 REUSING STREAM SEGMENT DATA FROM LAST STRESS PERIOD



            AREAL INFILTRATION RATE
 READING ON UNIT   19 WITH FORMAT: (10F4.0)            

            1           2           3           4           5           6           7           8           9          10
 ........................................................................................................................
   1    0.000       0.000       0.000       0.000       0.000       0.000       0.000       0.000       0.000       0.000    
   2    0.000       0.000       0.000       0.000       0.000       0.000       0.000       0.000       0.000       0.000    
   3    0.000       0.000       0.000       0.000       0.000       0.000       0.000       0.000       0.000       0.000    
   4    0.000       0.000       0.000       0.000       0.000       0.000       0.000       0.000       0.000       0.000    
   5    0.000       0.000       0.000       0.000       0.000       0.000       0.000       0.000       0.000       0.000    
   6    0.000       0.000       0.000       0.000       0.000       0.000       0.000       0.000       0.000       0.000    
   7    0.000       0.000       0.000       0.000       0.000       0.000       0.000       0.000       0.000       0.000    
   8    0.000       0.000       0.000       0.000       0.000       0.000       0.000       0.000       0.000       0.000    
   9    0.000       0.000       0.000       0.000       0.000       0.000       0.000       0.000       0.000       0.000    
  10    0.000       0.000       0.000       0.000       0.000       0.000       0.000       0.000       0.000       0.000    
  11    0.000       0.000       0.000       0.000       0.000       0.000       0.000       0.000       0.000       0.000    
  12    0.000       0.000       0.000       0.000       0.000       0.000       0.000       0.000       0.000       0.000    
  13    0.000       0.000       0.000       0.000       0.000       0.000       0.000       0.000       0.000       0.000    
  14    0.000       0.000       0.000       0.000       0.000       0.000       0.000       0.000       0.000       0.000    
  15    0.000       0.000       0.000       0.000       0.000       0.000       0.000       0.000       0.000       0.000    

                  ET RATE =  3.000000E-08

 USING ET EXTINCTION DEPTH FROM PREVIOUS STRESS PERIOD. CURRENT PERIOD IS:       7

 USING EXTINCTION WATER CONTENT FROM PREVIOUS STRESS PERIOD. CURRENT PERIOD IS:       7

 PROCESSING AWU STRESS PERIOD DATA

 READING AWU STRESS PERIOD DATA

 READING IRRIGATION STREAM

 READING IRRIGATION WELL

 READING SUPPLEMENTAL WEL

 END PROCESSING AWU STRESS PERIOD DATA OPTIONS
 
 SOLVING FOR HEAD 
                                                   Max.-Head-Change                         Max.-Flux-Residual
  Residual-Control   Outer-Iter.   Inner-Iter.     Column Row Layer    Maximum-Head-Change  Column Row Layer    Maximum-Flux-Residual          L2-NORM 
          0                 1           2             2   13     1       0.1104786388E-01       2   13    1         0.6321096794E+00      0.1171790532E+01
          0                 2           2             4   13     1       0.5702049311E-02       4   13    1         0.3304046796E+00      0.5799625811E+00
          0                 3           2             4   13     1      -0.5585167804E-03       4   13    1        -0.3267532709E-01      0.5587870595E-01
          0                 4           1             4   13     1       0.4916960668E-04       4   13    1         0.2904365699E-02      0.4837578437E-02

    ------------------------------------------------
       NWT REQUIRED            4 OUTER ITERATIONS 
       AND A TOTAL OF          7 INNER ITERATIONS.
    ------------------------------------------------

 NO OUTPUT CONTROL FOR STRESS PERIOD    7   TIME STEP    1
 
 SOLVING FOR HEAD 
                                                   Max.-Head-Change                         Max.-Flux-Residual
  Residual-Control   Outer-Iter.   Inner-Iter.     Column Row Layer    Maximum-Head-Change  Column Row Layer    Maximum-Flux-Residual          L2-NORM 
          0                 1           2             2   13     1       0.9555073624E-02       2   13    1         0.5468049872E+00      0.1073352020E+01
          0                 2           2             4   13     1       0.5832841363E-02       4   13    1         0.3380669230E+00      0.5902368473E+00
          0                 3           2             4   13     1      -0.5713909375E-03       4   13    1        -0.3343635323E-01      0.5689036937E-01
          0                 4           1             4   13     1       0.5035177569E-04       4   13    1         0.2974878974E-02      0.4928420308E-02

    ------------------------------------------------
       NWT REQUIRED            4 OUTER ITERATIONS 
       AND A TOTAL OF          7 INNER ITERATIONS.
    ------------------------------------------------

 NO OUTPUT CONTROL FOR STRESS PERIOD    7   TIME STEP    2
 
 SOLVING FOR HEAD 
                                                   Max.-Head-Change                         Max.-Flux-Residual
  Residual-Control   Outer-Iter.   Inner-Iter.     Column Row Layer    Maximum-Head-Change  Column Row Layer    Maximum-Flux-Residual          L2-NORM 
          0                 1           2             2   13     1       0.8194399941E-02       2   13    1         0.4690555160E+00      0.9915742288E+00
          0                 2           2             4   13     1       0.5949489305E-02       4   13    1         0.3448990296E+00      0.5996566918E+00
          0                 3           2             4   13     1      -0.5828522807E-03       4   13    1        -0.3411371899E-01      0.5781372426E-01
          0                 4           1             4   13     1       0.5133509530E-04       4   13    1         0.3033525823E-02      0.5007812154E-02

    ------------------------------------------------
       NWT REQUIRED            4 OUTER ITERATIONS 
       AND A TOTAL OF          7 INNER ITERATIONS.
    ------------------------------------------------

 NO OUTPUT CONTROL FOR STRESS PERIOD    7   TIME STEP    3
 
 SOLVING FOR HEAD 
                                                   Max.-Head-Change                         Max.-Flux-Residual
  Residual-Control   Outer-Iter.   Inner-Iter.     Column Row Layer    Maximum-Head-Change  Column Row Layer    Maximum-Flux-Residual          L2-NORM 
          0                 1           2             2   13     1       0.1369926922E-01       2   13    1         0.7830596185E+00      0.1472962276E+01
          0                 2           2             2   13     1      -0.1304476138E-02       2   13    1        -0.7526095134E-01      0.1295634721E+00
          0                 3           1             2   13     1       0.1112867253E-03       2   13    1         0.6479892331E-02      0.1105077387E-01
          0                 4           1             2   13     1      -0.8400314079E-05       2   13    1        -0.4936482710E-03      0.8555268890E-03

    ------------------------------------------------
       NWT REQUIRED            4 OUTER ITERATIONS 
       AND A TOTAL OF          6 INNER ITERATIONS.
    ------------------------------------------------

 NO OUTPUT CONTROL FOR STRESS PERIOD    7   TIME STEP    4
 
 SOLVING FOR HEAD 
                                                   Max.-Head-Change                         Max.-Flux-Residual
  Residual-Control   Outer-Iter.   Inner-Iter.     Column Row Layer    Maximum-Head-Change  Column Row Layer    Maximum-Flux-Residual          L2-NORM 
          0                 1           2             2   13     1       0.1344396957E-01       2   13    1         0.7683824451E+00      0.1383612516E+01
          0                 2           2             2   13     1      -0.1279312286E-02       2   13    1        -0.7380081851E-01      0.1194475879E+00
          0                 3           1             2   13     1       0.1090377611E-03       2   13    1         0.6348123383E-02      0.1008627987E-01
          0                 4           1             2   13     1      -0.8218051723E-05       2   13    1        -0.4828643732E-03      0.7752461390E-03

    ------------------------------------------------
       NWT REQUIRED            4 OUTER ITERATIONS 
       AND A TOTAL OF          6 INNER ITERATIONS.
    ------------------------------------------------

 OUTPUT CONTROL FOR STRESS PERIOD    7   TIME STEP    5
    PRINT BUDGET
    SAVE BUDGET
 UBDSV1 SAVING "         STORAGE" ON UNIT 102 AT TIME STEP     5, STRESS PERIOD   7
 UBDSV2 SAVING "   CONSTANT HEAD" ON UNIT 102 AT TIME STEP     5, STRESS PERIOD   7
 UBDSV1 SAVING "FLOW RIGHT FACE " ON UNIT 102 AT TIME STEP     5, STRESS PERIOD   7
 UBDSV1 SAVING "FLOW FRONT FACE " ON UNIT 102 AT TIME STEP     5, STRESS PERIOD   7

  HEAD DEP BOUNDS   PERIOD    7   STEP     5
 BOUNDARY      1   LAYER   1   ROW    13   COL     1   RATE   -0.291443    
 BOUNDARY      2   LAYER   1   ROW    14   COL     9   RATE    0.285892    



 STREAM LISTING     PERIOD      7   STEP        5

 LAYER ROW COL. STREAM  RCH.  FLOW INTO     FLOW TO   FLOW OUT OF   OVRLND.     DIRECT     STREAM       STREAM     STREAM     STREAM   STREAMBED  STREAMBED
                SEG.NO.  NO.  STRM. RCH.    AQUIFER    STRM. RCH.    RUNOFF     PRECIP       ET          HEAD       DEPTH      WIDTH   CONDCTNC.   GRADIENT

   1    1    1     1     1    9.9000E+01  4.7281E-01   9.8527E+01  0.000E+00  0.000E+00  0.000E+00  1.09484E+03  1.796E+00  2.191E+01  9.859E-02  1.599E+00
   1    2    2     1     2    9.8527E+01  7.3365E-01   9.7794E+01  0.000E+00  0.000E+00  0.000E+00  1.08985E+03  1.793E+00  2.187E+01  1.531E-01  1.598E+00
   1    3    3     1     3    9.7794E+01  6.2707E-01   9.7166E+01  0.000E+00  0.000E+00  0.000E+00  1.08421E+03  1.791E+00  2.181E+01  1.309E-01  1.597E+00
   1    3    4     1     4    9.7166E+01  5.7859E-01   9.6588E+01  0.000E+00  0.000E+00  0.000E+00  1.07920E+03  1.789E+00  2.177E+01  1.208E-01  1.596E+00
   1    4    5     2     1    9.4588E+01  4.4299E-01   9.4145E+01  0.000E+00  0.000E+00  0.000E+00  1.07461E+03  2.679E+00  1.200E+01  7.800E-02  1.893E+00
   1    5    6     2     2    9.4145E+01  3.4036E-01   9.3805E+01  0.000E+00  0.000E+00  0.000E+00  1.06918E+03  2.673E+00  1.200E+01  6.000E-02  1.891E+00
   1    6    6     2     3    9.3805E+01  3.4001E-01   9.3465E+01  0.000E+00  0.000E+00  0.000E+00  1.06446E+03  2.667E+00  1.200E+01  6.000E-02  1.889E+00
   1    7    6     2     4    9.3465E+01  3.3967E-01   9.3125E+01  0.000E+00  0.000E+00  0.000E+00  1.05974E+03  2.661E+00  1.200E+01  6.000E-02  1.887E+00
   1    8    6     2     5    9.3125E+01  3.3932E-01   9.2786E+01  0.000E+00  0.000E+00  0.000E+00  1.05501E+03  2.655E+00  1.200E+01  6.000E-02  1.885E+00
   1    3    5     3     1    2.0000E+00  2.8252E-01   1.7175E+00  0.000E+00  0.000E+00  0.000E+00  1.07555E+03  1.909E+00  9.636E+00  7.227E-02  1.955E+00
   1    3    6     3     2    1.7175E+00  2.4905E-01   1.4684E+00  0.000E+00  0.000E+00  0.000E+00  1.07264E+03  1.727E+00  8.909E+00  6.682E-02  1.864E+00
   1    3    7     3     3    1.4684E+00  1.9718E-01   1.2712E+00  0.000E+00  0.000E+00  0.000E+00  1.06987E+03  1.555E+00  8.218E+00  5.547E-02  1.777E+00
   1    4    8     3     4    1.2712E+00  2.2567E-01   1.0456E+00  0.000E+00  0.000E+00  0.000E+00  1.06682E+03  1.364E+00  7.455E+00  6.709E-02  1.682E+00
   1    5    8     3     5    1.0456E+00  1.5790E-01   8.8768E-01  0.000E+00  0.000E+00  0.000E+00  1.06362E+03  1.164E+00  6.655E+00  4.991E-02  1.582E+00
   1    6    8     3     6    8.8768E-01  5.5980E-02   8.3170E-01  0.000E+00  0.000E+00  0.000E+00  1.06158E+03  1.036E+00  6.145E+00  1.844E-02  1.518E+00
   1    5   10     4     1    1.0000E+01  9.0919E-02   9.9091E+00  0.000E+00  0.000E+00  0.000E+00  1.07836E+03  6.368E-01  1.000E+01  2.500E-02  1.212E+00
   1    5    9     4     2    9.9091E+00  1.8158E-01   9.7275E+00  0.000E+00  0.000E+00  0.000E+00  1.07154E+03  6.315E-01  1.000E+01  5.000E-02  1.211E+00
   1    6    8     4     3    9.7275E+00  1.2689E-01   9.6006E+00  0.000E+00  0.000E+00  0.000E+00  1.06381E+03  6.256E-01  1.000E+01  3.500E-02  1.209E+00
   1    6    8     5     1    1.0432E+01  2.2686E-01   1.0205E+01  0.000E+00  0.000E+00  0.000E+00  1.05868E+03  6.790E-01  1.542E+01  6.166E-02  1.226E+00
   1    7    7     5     2    1.0205E+01  2.7894E-01   9.9265E+00  0.000E+00  0.000E+00  0.000E+00  1.05417E+03  6.732E-01  1.519E+01  7.594E-02  1.224E+00
   1    8    7     5     3    9.9265E+00  1.9221E-01   9.7343E+00  0.000E+00  0.000E+00  0.000E+00  1.04992E+03  6.676E-01  1.497E+01  5.241E-02  1.223E+00
   1    8    6     5     4    9.7343E+00  1.3577E-01   9.5985E+00  0.000E+00  0.000E+00  0.000E+00  1.04691E+03  6.637E-01  1.482E+01  3.706E-02  1.221E+00
   1    9    6     6     1    1.0238E+02  3.5054E-01   1.0203E+02  0.000E+00  0.000E+00  0.000E+00  1.04557E+03  2.842E+00  1.200E+01  6.000E-02  1.947E+00
   1   10    7     6     2    1.0203E+02  3.5018E-01   1.0168E+02  0.000E+00  0.000E+00  0.000E+00  1.04102E+03  2.836E+00  1.200E+01  6.000E-02  1.945E+00
   1   11    7     6     3    1.0168E+02  3.4983E-01   1.0133E+02  0.000E+00  0.000E+00  0.000E+00  1.03647E+03  2.831E+00  1.200E+01  6.000E-02  1.944E+00
   1   12    7     6     4    1.0133E+02  3.4948E-01   1.0098E+02  0.000E+00  0.000E+00  0.000E+00  1.03192E+03  2.825E+00  1.200E+01  6.000E-02  1.942E+00
   1   13    7     6     5    1.0098E+02  3.8457E-02   1.0095E+02  0.000E+00  0.000E+00  0.000E+00  1.02873E+03  2.821E+00  1.200E+01  2.400E-02  5.341E-01
   1   14    9     7     1    1.5000E+02  1.3378E+00   1.4866E+02  0.000E+00  0.000E+00  0.000E+00  1.03987E+03  2.288E+00  5.529E+01  5.593E-01  7.973E-01
   1   13    8     7     2    1.4866E+02  1.8252E+00   1.4684E+02  0.000E+00  0.000E+00  0.000E+00  1.03478E+03  2.279E+00  5.526E+01  6.148E-01  9.896E-01
   1   13    7     7     3    1.4684E+02  1.4307E+00   1.4541E+02  0.000E+00  0.000E+00  0.000E+00  1.02969E+03  2.271E+00  5.522E+01  5.585E-01  8.539E-01
   1   13    6     8     1    2.4635E+02  1.2138E+00   2.4514E+02  0.000E+00  0.000E+00  0.000E+00  1.02526E+03  3.390E+00  4.915E+01  5.009E-01  8.078E-01
   1   13    5     8     2    2.4514E+02  3.7888E-01   2.4476E+02  0.000E+00  0.000E+00  0.000E+00  1.01901E+03  3.386E+00  4.909E+01  5.003E-01  2.525E-01
   1   13    4     8     3    2.4476E+02 -1.2740E+00   2.4603E+02  0.000E+00  0.000E+00  0.000E+00  1.01276E+03  3.388E+00  4.912E+01  5.006E+00 -8.483E-02
   1   13    3     8     4    2.4603E+02 -2.5402E+00   2.4857E+02  0.000E+00  0.000E+00  0.000E+00  1.00652E+03  3.398E+00  4.927E+01  5.020E+00 -1.687E-01
   1   13    2     8     5    2.4857E+02 -1.5007E+00   2.5007E+02  0.000E+00  0.000E+00  0.000E+00  1.00028E+03  3.408E+00  4.942E+01  5.036E+00 -9.933E-02
   1   13    1     8     6    2.5007E+02 -1.1494E+00   2.5122E+02  0.000E+00  0.000E+00  0.000E+00  9.95290E+02  3.415E+00  4.952E+01  3.028E+00 -1.266E-01
   1    6    8     9     1    0.0000E+00  0.0000E+00   0.0000E+00  0.000E+00  0.000E+00  0.000E+00  1.07850E+03  0.000E+00  4.000E+00  0.000E+00  1.000E+00



 UBDSV3 SAVING "           GW ET" ON UNIT  61 AT TIME STEP     5, STRESS PERIOD   7
 UBDSV3 SAVING "    UZF RECHARGE" ON UNIT  61 AT TIME STEP     5, STRESS PERIOD   7
 UBDSV3 SAVING " SURFACE LEAKAGE" ON UNIT  61 AT TIME STEP     5, STRESS PERIOD   7
 UBDSV3 SAVING "       HORT+DUNN" ON UNIT  61 AT TIME STEP     5, STRESS PERIOD   7
 UBDSV3 SAVING "  STORAGE CHANGE" ON UNIT  61 AT TIME STEP     5, STRESS PERIOD   7


UNSATURATED ZONE PACKAGE VOLUMETRIC BUDGET FOR  TIME STEP     5 STRESS PERIOD    7
  ------------------------------------------------------------------------------



     CUMULATIVE VOLUMES      L**3       RATES FOR THIS TIME STEP      L**3/T
     ------------------                 ------------------------

           IN:                                      IN:
           ---                                      ---
        INFILTRATION =    15096216.2109          INFILTRATION =       0.0000E+00

          OUT:                                     OUT:
          ----                                     ----
              UZF ET =     3657475.2092                UZF ET =           2.3569
        UZF RECHARGE =     1530928.9452          UZF RECHARGE =           0.1286

            IN - OUT =     9907812.0565              IN - OUT =          -2.4855

          STORAGE:                                 STORAGE:
          --------                                 --------
      STORAGE CHANGE =     9910574.9164        STORAGE CHANGE =          -2.4755

 PERCENT DISCREPANCY IS DIFFERENCE BETWEEN IN-OUT MINUS CHANGE IN STORAGE
 DIVIDED BY THE AVERAGE OF IN AND OUT TIMES 100

 PERCENT DISCREPANCY =          -0.00     PERCENT DISCREPANCY =          -0.40






 

 AWU WELLS                PERIOD    7   STEP   5
 AWU WELL      1   LAYER   1   ROW     6   COL     4   RATE     0.00000    
 AWU WELL      2   LAYER   1   ROW     6   COL     5   RATE     0.00000    
 AWU WELL      3   LAYER   1   ROW     7   COL     4   RATE     0.00000    
 AWU WELL      4   LAYER   1   ROW     7   COL     5   RATE     0.00000    
 AWU WELL      5   LAYER   1   ROW     8   COL     4   RATE     0.00000    
 AWU WELL      6   LAYER   1   ROW     8   COL     5   RATE     0.00000    
 
 

 DIVERSION SEGMENTS       PERIOD    7   STEP   5
 SEGMENT      9   RATE     0.00000    
 
 

 SW IRRIGATION            PERIOD    7   STEP   5
 SEGMENT      9   ROW     6   COL     4   RATE     0.00000    
 SEGMENT      9   ROW     6   COL     5   RATE     0.00000    
 SEGMENT      9   ROW     7   COL     4   RATE     0.00000    
 SEGMENT      9   ROW     7   COL     5   RATE     0.00000    
 SEGMENT      9   ROW     8   COL     4   RATE     0.00000    
 SEGMENT      9   ROW     8   COL     5   RATE     0.00000    
 
 

 GW IRRIGATION            PERIOD    7   STEP   5
 AWU WELL      1   ROW     6   COL     4   RATE     0.00000    
 AWU WELL      2   ROW     6   COL     5   RATE     0.00000    
 AWU WELL      3   ROW     7   COL     4   RATE     0.00000    
 AWU WELL      4   ROW     7   COL     5   RATE     0.00000    
 AWU WELL      5   ROW     8   COL     4   RATE     0.00000    
 AWU WELL      6   ROW     8   COL     5   RATE     0.00000    
 
1
  VOLUMETRIC BUDGET FOR ENTIRE MODEL AT END OF TIME STEP    5, STRESS PERIOD   7
  ------------------------------------------------------------------------------

     CUMULATIVE VOLUMES      L**3       RATES FOR THIS TIME STEP      L**3/T
     ------------------                 ------------------------

           IN:                                      IN:
           ---                                      ---
    AWU WELLS            =     7277868.5000      AWU WELLS            =           0.0000
    DIVERSION SEGMENTS   =     7745124.0000      DIVERSION SEGMENTS   =           0.0000
    GW IRRIGATION        =           0.0000      GW IRRIGATION        =           0.0000
    SW IRRIGATION        =           0.0000      SW IRRIGATION        =           0.0000
    EFFICIENCY FACTOR GW =           0.0000      EFFICIENCY FACTOR GW =           0.0000
    EFFICIENCY FACTOR SW =           0.0000      EFFICIENCY FACTOR SW =           0.0000

                TOTAL IN =    15022992.0000                  TOTAL IN =           0.0000

          OUT:                                     OUT:
          ----                                     ----
    AWU WELLS            =           0.0000      AWU WELLS            =           0.0000
    DIVERSION SEGMENTS   =           0.0000      DIVERSION SEGMENTS   =           0.0000
    GW IRRIGATION        =     7277868.5000      GW IRRIGATION        =           0.0000
    SW IRRIGATION        =     7745124.0000      SW IRRIGATION        =           0.0000
    EFFICIENCY FACTOR GW =           0.0000      EFFICIENCY FACTOR GW =           0.0000
    EFFICIENCY FACTOR SW =           0.0000      EFFICIENCY FACTOR SW =           0.0000

               TOTAL OUT =    15022992.0000                 TOTAL OUT =           0.0000

                IN - OUT =           0.0000                  IN - OUT =           0.0000

     PERCENT DISCREPANCY =           0.00         PERCENT DISCREPANCY =           0.00



1
  VOLUMETRIC BUDGET FOR ENTIRE MODEL AT END OF TIME STEP    5, STRESS PERIOD   7
  ------------------------------------------------------------------------------

     CUMULATIVE VOLUMES      L**3       RATES FOR THIS TIME STEP      L**3/T
     ------------------                 ------------------------

           IN:                                      IN:
           ---                                      ---
             STORAGE     =    20554950.0000               STORAGE     =           0.5908
       CONSTANT HEAD     =           0.0000         CONSTANT HEAD     =           0.0000
     HEAD DEP BOUNDS     =     3905832.7500       HEAD DEP BOUNDS     =           0.2859
      STREAM LEAKAGE     =   164687696.0000        STREAM LEAKAGE     =          14.2408
        UZF RECHARGE     =     1530929.3750          UZF RECHARGE     =           0.1286
               GW ET     =           0.0000                 GW ET     =           0.0000
     SURFACE LEAKAGE     =           0.0000       SURFACE LEAKAGE     =           0.0000
    AWU WELLS            =           0.0000      AWU WELLS            =           0.0000

                TOTAL IN =   190679408.0000                  TOTAL IN =          15.2461

          OUT:                                     OUT:
          ----                                     ----
             STORAGE     =    33953664.0000               STORAGE     =           5.3374
       CONSTANT HEAD     =           0.0000         CONSTANT HEAD     =           0.0000
     HEAD DEP BOUNDS     =     3969184.7500       HEAD DEP BOUNDS     =           0.2914
      STREAM LEAKAGE     =   139785520.0000        STREAM LEAKAGE     =           6.4642
        UZF RECHARGE     =           0.0000          UZF RECHARGE     =           0.0000
               GW ET     =     5701054.5000                 GW ET     =           3.1529
     SURFACE LEAKAGE     =           0.0000       SURFACE LEAKAGE     =           0.0000
    AWU WELLS            =     7277868.5000      AWU WELLS            =           0.0000

               TOTAL OUT =   190687296.0000                 TOTAL OUT =          15.2460

                IN - OUT =       -7888.0000                  IN - OUT =       1.2207E-04

     PERCENT DISCREPANCY =          -0.00         PERCENT DISCREPANCY =           0.00






         TIME SUMMARY AT END OF TIME STEP    5 IN STRESS PERIOD    7
                    SECONDS     MINUTES      HOURS       DAYS        YEARS
                    -----------------------------------------------------------
   TIME STEP LENGTH  87600.      1460.0      24.333      1.0139     2.77588E-03
 STRESS PERIOD TIME 4.38000E+05  7300.0      121.67      5.0694     1.38794E-02
         TOTAL TIME 1.36644E+07 2.27740E+05  3795.7      158.15     0.43300    
1
 
 SOLVING FOR HEAD 
                                                   Max.-Head-Change                         Max.-Flux-Residual
  Residual-Control   Outer-Iter.   Inner-Iter.     Column Row Layer    Maximum-Head-Change  Column Row Layer    Maximum-Flux-Residual          L2-NORM 
          0                 1           2             2   13     1       0.1226285817E-01       2   13    1         0.7007905411E+00      0.1294837937E+01
          0                 2           2             2   13     1      -0.1167396150E-02       2   13    1        -0.6733706511E-01      0.1098746910E+00
          0                 3           1             2   13     1       0.9954008733E-04       2   13    1         0.5794474907E-02      0.9229320718E-02

    ------------------------------------------------
       NWT REQUIRED            3 OUTER ITERATIONS 
       AND A TOTAL OF          5 INNER ITERATIONS.
    ------------------------------------------------

 NO OUTPUT CONTROL FOR STRESS PERIOD    7   TIME STEP    6
 
 SOLVING FOR HEAD 
                                                   Max.-Head-Change                         Max.-Flux-Residual
  Residual-Control   Outer-Iter.   Inner-Iter.     Column Row Layer    Maximum-Head-Change  Column Row Layer    Maximum-Flux-Residual          L2-NORM 
          0                 1           2             2   13     1       0.1118579600E-01       2   13    1         0.6391574621E+00      0.1216611784E+01
          0                 2           2             2   13     1      -0.1065318759E-02       2   13    1        -0.6144200321E-01      0.1013161087E+00
          0                 3           1             2   13     1       0.9090576048E-04       2   13    1         0.5291198287E-02      0.8462194470E-02

    ------------------------------------------------
       NWT REQUIRED            3 OUTER ITERATIONS 
       AND A TOTAL OF          5 INNER ITERATIONS.
    ------------------------------------------------

 NO OUTPUT CONTROL FOR STRESS PERIOD    7   TIME STEP    7
 
 SOLVING FOR HEAD 
                                                   Max.-Head-Change                         Max.-Flux-Residual
  Residual-Control   Outer-Iter.   Inner-Iter.     Column Row Layer    Maximum-Head-Change  Column Row Layer    Maximum-Flux-Residual          L2-NORM 
          0                 1           2             2   13     1       0.1020441536E-01       2   13    1         0.5830038191E+00      0.1147899783E+01
          0                 2           2             2   13     1      -0.9722361301E-03       2   13    1        -0.5606686096E-01      0.9367400010E-01
          0                 3           1             2   13     1       0.8299070546E-04       2   13    1         0.4829893319E-02      0.7771027345E-02

    ------------------------------------------------
       NWT REQUIRED            3 OUTER ITERATIONS 
       AND A TOTAL OF          5 INNER ITERATIONS.
    ------------------------------------------------

 NO OUTPUT CONTROL FOR STRESS PERIOD    7   TIME STEP    8
 
 SOLVING FOR HEAD 
                                                   Max.-Head-Change                         Max.-Flux-Residual
  Residual-Control   Outer-Iter.   Inner-Iter.     Column Row Layer    Maximum-Head-Change  Column Row Layer    Maximum-Flux-Residual          L2-NORM 
          0                 1           2             2   13     1       0.9309995238E-02       2   13    1         0.5318298023E+00      0.1087683973E+01
          0                 2           2             2   13     1      -0.8873144440E-03       2   13    1        -0.5116335714E-01      0.8685852753E-01
          0                 3           1             2   13     1       0.7577813720E-04       2   13    1         0.4409562639E-02      0.7151907395E-02

    ------------------------------------------------
       NWT REQUIRED            3 OUTER ITERATIONS 
       AND A TOTAL OF          5 INNER ITERATIONS.
    ------------------------------------------------

 NO OUTPUT CONTROL FOR STRESS PERIOD    7   TIME STEP    9
 
 SOLVING FOR HEAD 
                                                   Max.-Head-Change                         Max.-Flux-Residual
  Residual-Control   Outer-Iter.   Inner-Iter.     Column Row Layer    Maximum-Head-Change  Column Row Layer    Maximum-Flux-Residual          L2-NORM 
          0                 1           2             4    8     1      -0.9933687948E-02       5    8    1        -0.5260958769E+00      0.1621312912E+01
          0                 2           2             4    8     1       0.9843339258E-03       5    8    1         0.5260939102E-01      0.1487377445E+00
          0                 3           1             4    8     1      -0.8778549012E-04       5    8    1        -0.4734847707E-02      0.1303932491E-01

    ------------------------------------------------
       NWT REQUIRED            3 OUTER ITERATIONS 
       AND A TOTAL OF          5 INNER ITERATIONS.
    ------------------------------------------------

 OUTPUT CONTROL FOR STRESS PERIOD    7   TIME STEP   10
    PRINT BUDGET
    SAVE BUDGET
 UBDSV1 SAVING "         STORAGE" ON UNIT 102 AT TIME STEP    10, STRESS PERIOD   7
 UBDSV2 SAVING "   CONSTANT HEAD" ON UNIT 102 AT TIME STEP    10, STRESS PERIOD   7
 UBDSV1 SAVING "FLOW RIGHT FACE " ON UNIT 102 AT TIME STEP    10, STRESS PERIOD   7
 UBDSV1 SAVING "FLOW FRONT FACE " ON UNIT 102 AT TIME STEP    10, STRESS PERIOD   7

  HEAD DEP BOUNDS   PERIOD    7   STEP    10
 BOUNDARY      1   LAYER   1   ROW    13   COL     1   RATE   -0.292124    
 BOUNDARY      2   LAYER   1   ROW    14   COL     9   RATE    0.285892    



 STREAM LISTING     PERIOD      7   STEP       10

 LAYER ROW COL. STREAM  RCH.  FLOW INTO     FLOW TO   FLOW OUT OF   OVRLND.     DIRECT     STREAM       STREAM     STREAM     STREAM   STREAMBED  STREAMBED
                SEG.NO.  NO.  STRM. RCH.    AQUIFER    STRM. RCH.    RUNOFF     PRECIP       ET          HEAD       DEPTH      WIDTH   CONDCTNC.   GRADIENT

   1    1    1     1     1    9.9000E+01  4.7281E-01   9.8527E+01  0.000E+00  0.000E+00  0.000E+00  1.09484E+03  1.796E+00  2.191E+01  9.859E-02  1.599E+00
   1    2    2     1     2    9.8527E+01  7.3365E-01   9.7794E+01  0.000E+00  0.000E+00  0.000E+00  1.08985E+03  1.793E+00  2.187E+01  1.531E-01  1.598E+00
   1    3    3     1     3    9.7794E+01  6.2707E-01   9.7166E+01  0.000E+00  0.000E+00  0.000E+00  1.08421E+03  1.791E+00  2.181E+01  1.309E-01  1.597E+00
   1    3    4     1     4    9.7166E+01  5.7859E-01   9.6588E+01  0.000E+00  0.000E+00  0.000E+00  1.07920E+03  1.789E+00  2.177E+01  1.208E-01  1.596E+00
   1    4    5     2     1    9.4588E+01  4.4299E-01   9.4145E+01  0.000E+00  0.000E+00  0.000E+00  1.07461E+03  2.679E+00  1.200E+01  7.800E-02  1.893E+00
   1    5    6     2     2    9.4145E+01  3.4036E-01   9.3805E+01  0.000E+00  0.000E+00  0.000E+00  1.06918E+03  2.673E+00  1.200E+01  6.000E-02  1.891E+00
   1    6    6     2     3    9.3805E+01  3.4001E-01   9.3465E+01  0.000E+00  0.000E+00  0.000E+00  1.06446E+03  2.667E+00  1.200E+01  6.000E-02  1.889E+00
   1    7    6     2     4    9.3465E+01  3.3967E-01   9.3125E+01  0.000E+00  0.000E+00  0.000E+00  1.05974E+03  2.661E+00  1.200E+01  6.000E-02  1.887E+00
   1    8    6     2     5    9.3125E+01  3.3932E-01   9.2786E+01  0.000E+00  0.000E+00  0.000E+00  1.05501E+03  2.655E+00  1.200E+01  6.000E-02  1.885E+00
   1    3    5     3     1    2.0000E+00  2.8252E-01   1.7175E+00  0.000E+00  0.000E+00  0.000E+00  1.07555E+03  1.909E+00  9.636E+00  7.227E-02  1.955E+00
   1    3    6     3     2    1.7175E+00  2.4905E-01   1.4684E+00  0.000E+00  0.000E+00  0.000E+00  1.07264E+03  1.727E+00  8.909E+00  6.682E-02  1.864E+00
   1    3    7     3     3    1.4684E+00  1.9718E-01   1.2712E+00  0.000E+00  0.000E+00  0.000E+00  1.06987E+03  1.555E+00  8.218E+00  5.547E-02  1.777E+00
   1    4    8     3     4    1.2712E+00  2.2567E-01   1.0456E+00  0.000E+00  0.000E+00  0.000E+00  1.06682E+03  1.364E+00  7.455E+00  6.709E-02  1.682E+00
   1    5    8     3     5    1.0456E+00  1.5790E-01   8.8768E-01  0.000E+00  0.000E+00  0.000E+00  1.06362E+03  1.164E+00  6.655E+00  4.991E-02  1.582E+00
   1    6    8     3     6    8.8768E-01  5.5980E-02   8.3170E-01  0.000E+00  0.000E+00  0.000E+00  1.06158E+03  1.036E+00  6.145E+00  1.844E-02  1.518E+00
   1    5   10     4     1    1.0000E+01  9.0919E-02   9.9091E+00  0.000E+00  0.000E+00  0.000E+00  1.07836E+03  6.368E-01  1.000E+01  2.500E-02  1.212E+00
   1    5    9     4     2    9.9091E+00  1.8158E-01   9.7275E+00  0.000E+00  0.000E+00  0.000E+00  1.07154E+03  6.315E-01  1.000E+01  5.000E-02  1.211E+00
   1    6    8     4     3    9.7275E+00  1.2689E-01   9.6006E+00  0.000E+00  0.000E+00  0.000E+00  1.06381E+03  6.256E-01  1.000E+01  3.500E-02  1.209E+00
   1    6    8     5     1    1.0432E+01  2.2686E-01   1.0205E+01  0.000E+00  0.000E+00  0.000E+00  1.05868E+03  6.790E-01  1.542E+01  6.166E-02  1.226E+00
   1    7    7     5     2    1.0205E+01  2.7894E-01   9.9265E+00  0.000E+00  0.000E+00  0.000E+00  1.05417E+03  6.732E-01  1.519E+01  7.594E-02  1.224E+00
   1    8    7     5     3    9.9265E+00  1.9221E-01   9.7343E+00  0.000E+00  0.000E+00  0.000E+00  1.04992E+03  6.676E-01  1.497E+01  5.241E-02  1.223E+00
   1    8    6     5     4    9.7343E+00  1.3577E-01   9.5985E+00  0.000E+00  0.000E+00  0.000E+00  1.04691E+03  6.637E-01  1.482E+01  3.706E-02  1.221E+00
   1    9    6     6     1    1.0184E+02  3.4999E-01   1.0149E+02  0.000E+00  0.000E+00  0.000E+00  1.04556E+03  2.833E+00  1.200E+01  6.000E-02  1.944E+00
   1   10    7     6     2    1.0149E+02  3.4964E-01   1.0114E+02  0.000E+00  0.000E+00  0.000E+00  1.04101E+03  2.827E+00  1.200E+01  6.000E-02  1.942E+00
   1   11    7     6     3    1.0114E+02  3.4928E-01   1.0079E+02  0.000E+00  0.000E+00  0.000E+00  1.03646E+03  2.821E+00  1.200E+01  6.000E-02  1.940E+00
   1   12    7     6     4    1.0079E+02  3.4893E-01   1.0044E+02  0.000E+00  0.000E+00  0.000E+00  1.03191E+03  2.816E+00  1.200E+01  6.000E-02  1.939E+00
   1   13    7     6     5    1.0044E+02  3.8265E-02   1.0040E+02  0.000E+00  0.000E+00  0.000E+00  1.02872E+03  2.812E+00  1.200E+01  2.400E-02  5.315E-01
   1   14    9     7     1    1.5000E+02  1.3378E+00   1.4866E+02  0.000E+00  0.000E+00  0.000E+00  1.03987E+03  2.288E+00  5.529E+01  5.593E-01  7.973E-01
   1   13    8     7     2    1.4866E+02  1.8250E+00   1.4684E+02  0.000E+00  0.000E+00  0.000E+00  1.03478E+03  2.279E+00  5.526E+01  6.148E-01  9.895E-01
   1   13    7     7     3    1.4684E+02  1.4313E+00   1.4541E+02  0.000E+00  0.000E+00  0.000E+00  1.02969E+03  2.271E+00  5.522E+01  5.585E-01  8.543E-01
   1   13    6     8     1    2.4581E+02  1.2085E+00   2.4460E+02  0.000E+00  0.000E+00  0.000E+00  1.02526E+03  3.387E+00  4.911E+01  5.004E-01  8.049E-01
   1   13    5     8     2    2.4460E+02  3.8183E-01   2.4422E+02  0.000E+00  0.000E+00  0.000E+00  1.01901E+03  3.383E+00  4.905E+01  4.998E-01  2.546E-01
   1   13    4     8     3    2.4422E+02 -1.4517E+00   2.4567E+02  0.000E+00  0.000E+00  0.000E+00  1.01276E+03  3.386E+00  4.909E+01  5.002E+00 -9.673E-02
   1   13    3     8     4    2.4567E+02 -2.7149E+00   2.4838E+02  0.000E+00  0.000E+00  0.000E+00  1.00652E+03  3.396E+00  4.925E+01  5.018E+00 -1.803E-01
   1   13    2     8     5    2.4838E+02 -1.7379E+00   2.5012E+02  0.000E+00  0.000E+00  0.000E+00  1.00028E+03  3.408E+00  4.941E+01  5.035E+00 -1.151E-01
   1   13    1     8     6    2.5012E+02 -1.2027E+00   2.5132E+02  0.000E+00  0.000E+00  0.000E+00  9.95290E+02  3.415E+00  4.952E+01  3.028E+00 -1.324E-01
   1    6    8     9     1    5.4795E-01  0.0000E+00   5.4795E-01  0.000E+00  0.000E+00  0.000E+00  1.07859E+03  9.435E-02  4.000E+00  0.000E+00  1.031E+00



 UBDSV3 SAVING "           GW ET" ON UNIT  61 AT TIME STEP    10, STRESS PERIOD   7
 UBDSV3 SAVING "    UZF RECHARGE" ON UNIT  61 AT TIME STEP    10, STRESS PERIOD   7
 UBDSV3 SAVING " SURFACE LEAKAGE" ON UNIT  61 AT TIME STEP    10, STRESS PERIOD   7
 UBDSV3 SAVING "       HORT+DUNN" ON UNIT  61 AT TIME STEP    10, STRESS PERIOD   7
 UBDSV3 SAVING "  STORAGE CHANGE" ON UNIT  61 AT TIME STEP    10, STRESS PERIOD   7


UNSATURATED ZONE PACKAGE VOLUMETRIC BUDGET FOR  TIME STEP    10 STRESS PERIOD    7
  ------------------------------------------------------------------------------



     CUMULATIVE VOLUMES      L**3       RATES FOR THIS TIME STEP      L**3/T
     ------------------                 ------------------------

           IN:                                      IN:
           ---                                      ---
        INFILTRATION =    15452907.3281          INFILTRATION =           4.0718

          OUT:                                     OUT:
          ----                                     ----
              UZF ET =     4692586.5374                UZF ET =           2.3798
        UZF RECHARGE =     1587920.2290          UZF RECHARGE =           0.1318

            IN - OUT =     9172400.5618              IN - OUT =           1.5603

          STORAGE:                                 STORAGE:
          --------                                 --------
      STORAGE CHANGE =     9175169.6163        STORAGE CHANGE =           1.5603

 PERCENT DISCREPANCY IS DIFFERENCE BETWEEN IN-OUT MINUS CHANGE IN STORAGE
 DIVIDED BY THE AVERAGE OF IN AND OUT TIMES 100

 PERCENT DISCREPANCY =          -0.00     PERCENT DISCREPANCY =          -0.00






 

 AWU WELLS                PERIOD    7   STEP  10
 AWU WELL      1   LAYER   1   ROW     6   COL     4   RATE   -0.587310    
 AWU WELL      2   LAYER   1   ROW     6   COL     5   RATE   -0.587310    
 AWU WELL      3   LAYER   1   ROW     7   COL     4   RATE   -0.587310    
 AWU WELL      4   LAYER   1   ROW     7   COL     5   RATE   -0.587310    
 AWU WELL      5   LAYER   1   ROW     8   COL     4   RATE   -0.587310    
 AWU WELL      6   LAYER   1   ROW     8   COL     5   RATE   -0.587310    
 
 

 DIVERSION SEGMENTS       PERIOD    7   STEP  10
 SEGMENT      9   RATE    0.547945    
 
 

 SW IRRIGATION            PERIOD    7   STEP  10
 SEGMENT      9   ROW     6   COL     4   RATE    9.132602E-02
 SEGMENT      9   ROW     6   COL     5   RATE    9.132602E-02
 SEGMENT      9   ROW     7   COL     4   RATE    9.132602E-02
 SEGMENT      9   ROW     7   COL     5   RATE    9.132602E-02
 SEGMENT      9   ROW     8   COL     4   RATE    9.132602E-02
 SEGMENT      9   ROW     8   COL     5   RATE    9.132602E-02
 
 

 GW IRRIGATION            PERIOD    7   STEP  10
 AWU WELL      1   ROW     6   COL     4   RATE    0.587310    
 AWU WELL      2   ROW     6   COL     5   RATE    0.587310    
 AWU WELL      3   ROW     7   COL     4   RATE    0.587310    
 AWU WELL      4   ROW     7   COL     5   RATE    0.587310    
 AWU WELL      5   ROW     8   COL     4   RATE    0.587310    
 AWU WELL      6   ROW     8   COL     5   RATE    0.587310    
 
1
  VOLUMETRIC BUDGET FOR ENTIRE MODEL AT END OF TIME STEP   10, STRESS PERIOD   7
  ------------------------------------------------------------------------------

     CUMULATIVE VOLUMES      L**3       RATES FOR THIS TIME STEP      L**3/T
     ------------------                 ------------------------

           IN:                                      IN:
           ---                                      ---
    AWU WELLS            =     7586558.5000      AWU WELLS            =           3.5239
    DIVERSION SEGMENTS   =     7793125.0000      DIVERSION SEGMENTS   =           0.5480
    GW IRRIGATION        =           0.0000      GW IRRIGATION        =           0.0000
    SW IRRIGATION        =           0.0000      SW IRRIGATION        =           0.0000
    EFFICIENCY FACTOR GW =           0.0000      EFFICIENCY FACTOR GW =           0.0000
    EFFICIENCY FACTOR SW =           0.0000      EFFICIENCY FACTOR SW =           0.0000

                TOTAL IN =    15379684.0000                  TOTAL IN =           4.0718

          OUT:                                     OUT:
          ----                                     ----
    AWU WELLS            =           0.0000      AWU WELLS            =           0.0000
    DIVERSION SEGMENTS   =           0.0000      DIVERSION SEGMENTS   =           0.0000
    GW IRRIGATION        =     7586558.5000      GW IRRIGATION        =           3.5239
    SW IRRIGATION        =     7793125.0000      SW IRRIGATION        =           0.5480
    EFFICIENCY FACTOR GW =           0.0000      EFFICIENCY FACTOR GW =           0.0000
    EFFICIENCY FACTOR SW =           0.0000      EFFICIENCY FACTOR SW =           0.0000

               TOTAL OUT =    15379684.0000                 TOTAL OUT =           4.0718

                IN - OUT =           0.0000                  IN - OUT =           0.0000

     PERCENT DISCREPANCY =           0.00         PERCENT DISCREPANCY =           0.00



1
  VOLUMETRIC BUDGET FOR ENTIRE MODEL AT END OF TIME STEP   10, STRESS PERIOD   7
  ------------------------------------------------------------------------------

     CUMULATIVE VOLUMES      L**3       RATES FOR THIS TIME STEP      L**3/T
     ------------------                 ------------------------

           IN:                                      IN:
           ---                                      ---
             STORAGE     =    21060978.0000               STORAGE     =           3.5769
       CONSTANT HEAD     =           0.0000         CONSTANT HEAD     =           0.0000
     HEAD DEP BOUNDS     =     4031054.0000       HEAD DEP BOUNDS     =           0.2859
      STREAM LEAKAGE     =   170925200.0000        STREAM LEAKAGE     =          14.2364
        UZF RECHARGE     =     1587920.6250          UZF RECHARGE     =           0.1318
               GW ET     =           0.0000                 GW ET     =           0.0000
     SURFACE LEAKAGE     =           0.0000       SURFACE LEAKAGE     =           0.0000
    AWU WELLS            =           0.0000      AWU WELLS            =           0.0000

                TOTAL IN =   197605152.0000                  TOTAL IN =          18.2309

          OUT:                                     OUT:
          ----                                     ----
             STORAGE     =    36053968.0000               STORAGE     =           4.1345
       CONSTANT HEAD     =           0.0000         CONSTANT HEAD     =           0.0000
     HEAD DEP BOUNDS     =     4097021.0000       HEAD DEP BOUNDS     =           0.2921
      STREAM LEAKAGE     =   142788608.0000        STREAM LEAKAGE     =           7.1073
        UZF RECHARGE     =           0.0000          UZF RECHARGE     =           0.0000
               GW ET     =     7087339.0000                 GW ET     =           3.1719
     SURFACE LEAKAGE     =           0.0000       SURFACE LEAKAGE     =           0.0000
    AWU WELLS            =     7586558.5000      AWU WELLS            =           3.5239

               TOTAL OUT =   197613504.0000                 TOTAL OUT =          18.2297

                IN - OUT =       -8352.0000                  IN - OUT =       1.2207E-03

     PERCENT DISCREPANCY =          -0.00         PERCENT DISCREPANCY =           0.01






         TIME SUMMARY AT END OF TIME STEP   10 IN STRESS PERIOD    7
                    SECONDS     MINUTES      HOURS       DAYS        YEARS
                    -----------------------------------------------------------
   TIME STEP LENGTH  87600.      1460.0      24.333      1.0139     2.77588E-03
 STRESS PERIOD TIME 8.76000E+05  14600.      243.33      10.139     2.77588E-02
         TOTAL TIME 1.41024E+07 2.35040E+05  3917.3      163.22     0.44688    
1
 
 SOLVING FOR HEAD 
                                                   Max.-Head-Change                         Max.-Flux-Residual
  Residual-Control   Outer-Iter.   Inner-Iter.     Column Row Layer    Maximum-Head-Change  Column Row Layer    Maximum-Flux-Residual          L2-NORM 
          0                 1           2             2    2     1       0.7578825729E-02       2    2    1         0.3956069837E+00      0.7725209874E+00
          0                 2           2             4   13     1       0.6532631480E-02       4   13    1         0.3825151471E+00      0.6559574944E+00
          0                 3           2             4   13     1      -0.5755263678E-03       4   13    1        -0.3401467392E-01      0.5869690911E-01
          0                 4           1             2   13     1       0.4762056108E-04       2   13    1         0.2766407616E-02      0.4697814022E-02

    ------------------------------------------------
       NWT REQUIRED            4 OUTER ITERATIONS 
       AND A TOTAL OF          7 INNER ITERATIONS.
    ------------------------------------------------

 NO OUTPUT CONTROL FOR STRESS PERIOD    7   TIME STEP   11
 
 SOLVING FOR HEAD 
                                                   Max.-Head-Change                         Max.-Flux-Residual
  Residual-Control   Outer-Iter.   Inner-Iter.     Column Row Layer    Maximum-Head-Change  Column Row Layer    Maximum-Flux-Residual          L2-NORM 
          0                 1           2             2    2     1       0.7537194062E-02       2    2    1         0.3934173449E+00      0.7756564292E+00
          0                 2           2             4   13     1       0.6567974174E-02       4   13    1         0.3845973153E+00      0.6595882059E+00
          0                 3           2             4   13     1      -0.5786685307E-03       4   13    1        -0.3420004789E-01      0.5720465420E-01
          0                 4           1             4   13     1       0.4530196901E-04       4   13    1         0.2702434276E-02      0.4401194210E-02

    ------------------------------------------------
       NWT REQUIRED            4 OUTER ITERATIONS 
       AND A TOTAL OF          7 INNER ITERATIONS.
    ------------------------------------------------

 NO OUTPUT CONTROL FOR STRESS PERIOD    7   TIME STEP   12
 
 SOLVING FOR HEAD 
                                                   Max.-Head-Change                         Max.-Flux-Residual
  Residual-Control   Outer-Iter.   Inner-Iter.     Column Row Layer    Maximum-Head-Change  Column Row Layer    Maximum-Flux-Residual          L2-NORM 
          0                 1           2             2    2     1       0.7496152102E-02       2    2    1         0.3912587823E+00      0.7804183423E+00
          0                 2           2             4   13     1       0.6599591655E-02       4   13    1         0.3864630022E+00      0.6628907511E+00
          0                 3           2             4   13     1      -0.5814337374E-03       4   13    1        -0.3436623914E-01      0.5747705879E-01
          0                 4           1             4   13     1       0.4551993183E-04       4   13    1         0.2715650371E-02      0.4423321716E-02

    ------------------------------------------------
       NWT REQUIRED            4 OUTER ITERATIONS 
       AND A TOTAL OF          7 INNER ITERATIONS.
    ------------------------------------------------

 NO OUTPUT CONTROL FOR STRESS PERIOD    7   TIME STEP   13
 
 SOLVING FOR HEAD 
                                                   Max.-Head-Change                         Max.-Flux-Residual
  Residual-Control   Outer-Iter.   Inner-Iter.     Column Row Layer    Maximum-Head-Change  Column Row Layer    Maximum-Flux-Residual          L2-NORM 
          0                 1           2             2    2     1       0.7455689947E-02       2    2    1         0.3891307923E+00      0.7862611284E+00
          0                 2           2             4   13     1       0.6628469605E-02       4   13    1         0.3881358676E+00      0.6659103884E+00
          0                 3           2             4   13     1      -0.5839746882E-03       4   13    1        -0.3451579448E-01      0.5774206122E-01
          0                 4           1             4   13     1       0.4572831025E-04       4   13    1         0.2728089613E-02      0.4443462706E-02

    ------------------------------------------------
       NWT REQUIRED            4 OUTER ITERATIONS 
       AND A TOTAL OF          7 INNER ITERATIONS.
    ------------------------------------------------

 NO OUTPUT CONTROL FOR STRESS PERIOD    7   TIME STEP   14
 
 SOLVING FOR HEAD 
                                                   Max.-Head-Change                         Max.-Flux-Residual
  Residual-Control   Outer-Iter.   Inner-Iter.     Column Row Layer    Maximum-Head-Change  Column Row Layer    Maximum-Flux-Residual          L2-NORM 
          0                 1           2             2    2     1       0.7415710835E-02       2    2    1         0.3870282876E+00      0.7927832160E+00
          0                 2           2             4   13     1       0.6653930594E-02       4   13    1         0.3896329352E+00      0.6686584870E+00
          0                 3           2             4   13     1      -0.5862072991E-03       4   13    1        -0.3464843470E-01      0.5798216107E-01
          0                 4           1             4   13     1       0.4588924729E-04       4   13    1         0.2737737380E-02      0.4461666479E-02

    ------------------------------------------------
       NWT REQUIRED            4 OUTER ITERATIONS 
       AND A TOTAL OF          7 INNER ITERATIONS.
    ------------------------------------------------

 OUTPUT CONTROL FOR STRESS PERIOD    7   TIME STEP   15
    PRINT BUDGET
    SAVE BUDGET
 UBDSV1 SAVING "         STORAGE" ON UNIT 102 AT TIME STEP    15, STRESS PERIOD   7
 UBDSV2 SAVING "   CONSTANT HEAD" ON UNIT 102 AT TIME STEP    15, STRESS PERIOD   7
 UBDSV1 SAVING "FLOW RIGHT FACE " ON UNIT 102 AT TIME STEP    15, STRESS PERIOD   7
 UBDSV1 SAVING "FLOW FRONT FACE " ON UNIT 102 AT TIME STEP    15, STRESS PERIOD   7

  HEAD DEP BOUNDS   PERIOD    7   STEP    15
 BOUNDARY      1   LAYER   1   ROW    13   COL     1   RATE   -0.292539    
 BOUNDARY      2   LAYER   1   ROW    14   COL     9   RATE    0.285892    



 STREAM LISTING     PERIOD      7   STEP       15

 LAYER ROW COL. STREAM  RCH.  FLOW INTO     FLOW TO   FLOW OUT OF   OVRLND.     DIRECT     STREAM       STREAM     STREAM     STREAM   STREAMBED  STREAMBED
                SEG.NO.  NO.  STRM. RCH.    AQUIFER    STRM. RCH.    RUNOFF     PRECIP       ET          HEAD       DEPTH      WIDTH   CONDCTNC.   GRADIENT

   1    1    1     1     1    9.9000E+01  4.7281E-01   9.8527E+01  0.000E+00  0.000E+00  0.000E+00  1.09484E+03  1.796E+00  2.191E+01  9.859E-02  1.599E+00
   1    2    2     1     2    9.8527E+01  7.3365E-01   9.7794E+01  0.000E+00  0.000E+00  0.000E+00  1.08985E+03  1.793E+00  2.187E+01  1.531E-01  1.598E+00
   1    3    3     1     3    9.7794E+01  6.2707E-01   9.7166E+01  0.000E+00  0.000E+00  0.000E+00  1.08421E+03  1.791E+00  2.181E+01  1.309E-01  1.597E+00
   1    3    4     1     4    9.7166E+01  5.7859E-01   9.6588E+01  0.000E+00  0.000E+00  0.000E+00  1.07920E+03  1.789E+00  2.177E+01  1.208E-01  1.596E+00
   1    4    5     2     1    9.4588E+01  4.4299E-01   9.4145E+01  0.000E+00  0.000E+00  0.000E+00  1.07461E+03  2.679E+00  1.200E+01  7.800E-02  1.893E+00
   1    5    6     2     2    9.4145E+01  3.4036E-01   9.3805E+01  0.000E+00  0.000E+00  0.000E+00  1.06918E+03  2.673E+00  1.200E+01  6.000E-02  1.891E+00
   1    6    6     2     3    9.3805E+01  3.4001E-01   9.3465E+01  0.000E+00  0.000E+00  0.000E+00  1.06446E+03  2.667E+00  1.200E+01  6.000E-02  1.889E+00
   1    7    6     2     4    9.3465E+01  3.3967E-01   9.3125E+01  0.000E+00  0.000E+00  0.000E+00  1.05974E+03  2.661E+00  1.200E+01  6.000E-02  1.887E+00
   1    8    6     2     5    9.3125E+01  3.3932E-01   9.2786E+01  0.000E+00  0.000E+00  0.000E+00  1.05501E+03  2.655E+00  1.200E+01  6.000E-02  1.885E+00
   1    3    5     3     1    2.0000E+00  2.8252E-01   1.7175E+00  0.000E+00  0.000E+00  0.000E+00  1.07555E+03  1.909E+00  9.636E+00  7.227E-02  1.955E+00
   1    3    6     3     2    1.7175E+00  2.4905E-01   1.4684E+00  0.000E+00  0.000E+00  0.000E+00  1.07264E+03  1.727E+00  8.909E+00  6.682E-02  1.864E+00
   1    3    7     3     3    1.4684E+00  1.9718E-01   1.2712E+00  0.000E+00  0.000E+00  0.000E+00  1.06987E+03  1.555E+00  8.218E+00  5.547E-02  1.777E+00
   1    4    8     3     4    1.2712E+00  2.2567E-01   1.0456E+00  0.000E+00  0.000E+00  0.000E+00  1.06682E+03  1.364E+00  7.455E+00  6.709E-02  1.682E+00
   1    5    8     3     5    1.0456E+00  1.5790E-01   8.8768E-01  0.000E+00  0.000E+00  0.000E+00  1.06362E+03  1.164E+00  6.655E+00  4.991E-02  1.582E+00
   1    6    8     3     6    8.8768E-01  5.5980E-02   8.3170E-01  0.000E+00  0.000E+00  0.000E+00  1.06158E+03  1.036E+00  6.145E+00  1.844E-02  1.518E+00
   1    5   10     4     1    1.0000E+01  9.0919E-02   9.9091E+00  0.000E+00  0.000E+00  0.000E+00  1.07836E+03  6.368E-01  1.000E+01  2.500E-02  1.212E+00
   1    5    9     4     2    9.9091E+00  1.8158E-01   9.7275E+00  0.000E+00  0.000E+00  0.000E+00  1.07154E+03  6.315E-01  1.000E+01  5.000E-02  1.211E+00
   1    6    8     4     3    9.7275E+00  1.2689E-01   9.6006E+00  0.000E+00  0.000E+00  0.000E+00  1.06381E+03  6.256E-01  1.000E+01  3.500E-02  1.209E+00
   1    6    8     5     1    1.0432E+01  2.2686E-01   1.0205E+01  0.000E+00  0.000E+00  0.000E+00  1.05868E+03  6.790E-01  1.542E+01  6.166E-02  1.226E+00
   1    7    7     5     2    1.0205E+01  2.7894E-01   9.9265E+00  0.000E+00  0.000E+00  0.000E+00  1.05417E+03  6.732E-01  1.519E+01  7.594E-02  1.224E+00
   1    8    7     5     3    9.9265E+00  1.9221E-01   9.7343E+00  0.000E+00  0.000E+00  0.000E+00  1.04992E+03  6.676E-01  1.497E+01  5.241E-02  1.223E+00
   1    8    6     5     4    9.7343E+00  1.3577E-01   9.5985E+00  0.000E+00  0.000E+00  0.000E+00  1.04691E+03  6.637E-01  1.482E+01  3.706E-02  1.221E+00
   1    9    6     6     1    9.8428E+01  3.4655E-01   9.8082E+01  0.000E+00  0.000E+00  0.000E+00  1.04550E+03  2.776E+00  1.200E+01  6.000E-02  1.925E+00
   1   10    7     6     2    9.8082E+01  3.4619E-01   9.7736E+01  0.000E+00  0.000E+00  0.000E+00  1.04095E+03  2.770E+00  1.200E+01  6.000E-02  1.923E+00
   1   11    7     6     3    9.7736E+01  3.4584E-01   9.7390E+01  0.000E+00  0.000E+00  0.000E+00  1.03640E+03  2.764E+00  1.200E+01  6.000E-02  1.921E+00
   1   12    7     6     4    9.7390E+01  3.4549E-01   9.7044E+01  0.000E+00  0.000E+00  0.000E+00  1.03185E+03  2.758E+00  1.200E+01  6.000E-02  1.919E+00
   1   13    7     6     5    9.7044E+01  3.6902E-02   9.7007E+01  0.000E+00  0.000E+00  0.000E+00  1.02866E+03  2.755E+00  1.200E+01  2.400E-02  5.125E-01
   1   14    9     7     1    1.5000E+02  1.3378E+00   1.4866E+02  0.000E+00  0.000E+00  0.000E+00  1.03987E+03  2.288E+00  5.529E+01  5.593E-01  7.973E-01
   1   13    8     7     2    1.4866E+02  1.8247E+00   1.4684E+02  0.000E+00  0.000E+00  0.000E+00  1.03478E+03  2.279E+00  5.526E+01  6.148E-01  9.894E-01
   1   13    7     7     3    1.4684E+02  1.4316E+00   1.4541E+02  0.000E+00  0.000E+00  0.000E+00  1.02969E+03  2.271E+00  5.522E+01  5.585E-01  8.545E-01
   1   13    6     8     1    2.4241E+02  1.1919E+00   2.4122E+02  0.000E+00  0.000E+00  0.000E+00  1.02524E+03  3.369E+00  4.885E+01  4.978E-01  7.980E-01
   1   13    5     8     2    2.4122E+02  3.7451E-01   2.4085E+02  0.000E+00  0.000E+00  0.000E+00  1.01899E+03  3.365E+00  4.880E+01  4.972E-01  2.511E-01
   1   13    4     8     3    2.4085E+02 -1.5968E+00   2.4244E+02  0.000E+00  0.000E+00  0.000E+00  1.01274E+03  3.368E+00  4.884E+01  4.977E+00 -1.069E-01
   1   13    3     8     4    2.4244E+02 -2.8631E+00   2.4531E+02  0.000E+00  0.000E+00  0.000E+00  1.00651E+03  3.380E+00  4.901E+01  4.994E+00 -1.911E-01
   1   13    2     8     5    2.4531E+02 -1.9272E+00   2.4723E+02  0.000E+00  0.000E+00  0.000E+00  1.00027E+03  3.392E+00  4.919E+01  5.013E+00 -1.282E-01
   1   13    1     8     6    2.4723E+02 -1.2745E+00   2.4851E+02  0.000E+00  0.000E+00  0.000E+00  9.95276E+02  3.401E+00  4.931E+01  3.015E+00 -1.409E-01
   1    6    8     9     1    3.9556E+00  0.0000E+00   3.9556E+00  0.000E+00  0.000E+00  0.000E+00  1.07881E+03  3.089E-01  4.000E+00  0.000E+00  1.103E+00



 UBDSV3 SAVING "           GW ET" ON UNIT  61 AT TIME STEP    15, STRESS PERIOD   7
 UBDSV3 SAVING "    UZF RECHARGE" ON UNIT  61 AT TIME STEP    15, STRESS PERIOD   7
 UBDSV3 SAVING " SURFACE LEAKAGE" ON UNIT  61 AT TIME STEP    15, STRESS PERIOD   7
 UBDSV3 SAVING "       HORT+DUNN" ON UNIT  61 AT TIME STEP    15, STRESS PERIOD   7
 UBDSV3 SAVING "  STORAGE CHANGE" ON UNIT  61 AT TIME STEP    15, STRESS PERIOD   7


UNSATURATED ZONE PACKAGE VOLUMETRIC BUDGET FOR  TIME STEP    15 STRESS PERIOD    7
  ------------------------------------------------------------------------------



     CUMULATIVE VOLUMES      L**3       RATES FOR THIS TIME STEP      L**3/T
     ------------------                 ------------------------

           IN:                                      IN:
           ---                                      ---
        INFILTRATION =    17194230.3047          INFILTRATION =           3.9557

          OUT:                                     OUT:
          ----                                     ----
              UZF ET =     5739071.0999                UZF ET =           2.3949
        UZF RECHARGE =     1648885.9007          UZF RECHARGE =           0.1429

            IN - OUT =     9806273.3042              IN - OUT =           1.4179

          STORAGE:                                 STORAGE:
          --------                                 --------
      STORAGE CHANGE =     9809047.3596        STORAGE CHANGE =           1.4179

 PERCENT DISCREPANCY IS DIFFERENCE BETWEEN IN-OUT MINUS CHANGE IN STORAGE
 DIVIDED BY THE AVERAGE OF IN AND OUT TIMES 100

 PERCENT DISCREPANCY =          -0.00     PERCENT DISCREPANCY =          -0.00






 

 AWU WELLS                PERIOD    7   STEP  15
 AWU WELL      1   LAYER   1   ROW     6   COL     4   RATE     0.00000    
 AWU WELL      2   LAYER   1   ROW     6   COL     5   RATE     0.00000    
 AWU WELL      3   LAYER   1   ROW     7   COL     4   RATE     0.00000    
 AWU WELL      4   LAYER   1   ROW     7   COL     5   RATE     0.00000    
 AWU WELL      5   LAYER   1   ROW     8   COL     4   RATE     0.00000    
 AWU WELL      6   LAYER   1   ROW     8   COL     5   RATE     0.00000    
 
 

 DIVERSION SEGMENTS       PERIOD    7   STEP  15
 SEGMENT      9   RATE     3.95563    
 
 

 SW IRRIGATION            PERIOD    7   STEP  15
 SEGMENT      9   ROW     6   COL     4   RATE    0.659285    
 SEGMENT      9   ROW     6   COL     5   RATE    0.659285    
 SEGMENT      9   ROW     7   COL     4   RATE    0.659285    
 SEGMENT      9   ROW     7   COL     5   RATE    0.659285    
 SEGMENT      9   ROW     8   COL     4   RATE    0.659285    
 SEGMENT      9   ROW     8   COL     5   RATE    0.659285    
 
 

 GW IRRIGATION            PERIOD    7   STEP  15
 AWU WELL      1   ROW     6   COL     4   RATE     0.00000    
 AWU WELL      2   ROW     6   COL     5   RATE     0.00000    
 AWU WELL      3   ROW     7   COL     4   RATE     0.00000    
 AWU WELL      4   ROW     7   COL     5   RATE     0.00000    
 AWU WELL      5   ROW     8   COL     4   RATE     0.00000    
 AWU WELL      6   ROW     8   COL     5   RATE     0.00000    
 
1
  VOLUMETRIC BUDGET FOR ENTIRE MODEL AT END OF TIME STEP   15, STRESS PERIOD   7
  ------------------------------------------------------------------------------

     CUMULATIVE VOLUMES      L**3       RATES FOR THIS TIME STEP      L**3/T
     ------------------                 ------------------------

           IN:                                      IN:
           ---                                      ---
    AWU WELLS            =     7586558.5000      AWU WELLS            =           0.0000
    DIVERSION SEGMENTS   =     9534448.0000      DIVERSION SEGMENTS   =           3.9557
    GW IRRIGATION        =           0.0000      GW IRRIGATION        =           0.0000
    SW IRRIGATION        =           0.0000      SW IRRIGATION        =           0.0000
    EFFICIENCY FACTOR GW =           0.0000      EFFICIENCY FACTOR GW =           0.0000
    EFFICIENCY FACTOR SW =           0.0000      EFFICIENCY FACTOR SW =           0.0000

                TOTAL IN =    17121006.0000                  TOTAL IN =           3.9557

          OUT:                                     OUT:
          ----                                     ----
    AWU WELLS            =           0.0000      AWU WELLS            =           0.0000
    DIVERSION SEGMENTS   =           0.0000      DIVERSION SEGMENTS   =           0.0000
    GW IRRIGATION        =     7586558.5000      GW IRRIGATION        =           0.0000
    SW IRRIGATION        =     9534448.0000      SW IRRIGATION        =           3.9557
    EFFICIENCY FACTOR GW =           0.0000      EFFICIENCY FACTOR GW =           0.0000
    EFFICIENCY FACTOR SW =           0.0000      EFFICIENCY FACTOR SW =           0.0000

               TOTAL OUT =    17121006.0000                 TOTAL OUT =           3.9557

                IN - OUT =           0.0000                  IN - OUT =           0.0000

     PERCENT DISCREPANCY =           0.00         PERCENT DISCREPANCY =           0.00



1
  VOLUMETRIC BUDGET FOR ENTIRE MODEL AT END OF TIME STEP   15, STRESS PERIOD   7
  ------------------------------------------------------------------------------

     CUMULATIVE VOLUMES      L**3       RATES FOR THIS TIME STEP      L**3/T
     ------------------                 ------------------------

           IN:                                      IN:
           ---                                      ---
             STORAGE     =    21281338.0000               STORAGE     =           0.4832
       CONSTANT HEAD     =           0.0000         CONSTANT HEAD     =           0.0000
     HEAD DEP BOUNDS     =     4156274.5000       HEAD DEP BOUNDS     =           0.2859
      STREAM LEAKAGE     =   177143264.0000        STREAM LEAKAGE     =          14.1974
        UZF RECHARGE     =     1648886.2500          UZF RECHARGE     =           0.1429
               GW ET     =           0.0000                 GW ET     =           0.0000
     SURFACE LEAKAGE     =           0.0000       SURFACE LEAKAGE     =           0.0000
    AWU WELLS            =           0.0000      AWU WELLS            =           0.0000

                TOTAL IN =   204229760.0000                  TOTAL IN =          15.1094

          OUT:                                     OUT:
          ----                                     ----
             STORAGE     =    37848628.0000               STORAGE     =           3.9750
       CONSTANT HEAD     =           0.0000         CONSTANT HEAD     =           0.0000
     HEAD DEP BOUNDS     =     4225083.5000       HEAD DEP BOUNDS     =           0.2925
      STREAM LEAKAGE     =   146098960.0000        STREAM LEAKAGE     =           7.6616
        UZF RECHARGE     =           0.0000          UZF RECHARGE     =           0.0000
               GW ET     =     8479149.0000                 GW ET     =           3.1809
     SURFACE LEAKAGE     =           0.0000       SURFACE LEAKAGE     =           0.0000
    AWU WELLS            =     7586558.5000      AWU WELLS            =           0.0000

               TOTAL OUT =   204238384.0000                 TOTAL OUT =          15.1101

                IN - OUT =       -8624.0000                  IN - OUT =      -6.4754E-04

     PERCENT DISCREPANCY =          -0.00         PERCENT DISCREPANCY =          -0.00






         TIME SUMMARY AT END OF TIME STEP   15 IN STRESS PERIOD    7
                    SECONDS     MINUTES      HOURS       DAYS        YEARS
                    -----------------------------------------------------------
   TIME STEP LENGTH  87600.      1460.0      24.333      1.0139     2.77588E-03
 STRESS PERIOD TIME 1.31400E+06  21900.      365.00      15.208     4.16381E-02
         TOTAL TIME 1.45404E+07 2.42340E+05  4039.0      168.29     0.46076    
1
 
 SOLVING FOR HEAD 
                                                   Max.-Head-Change                         Max.-Flux-Residual
  Residual-Control   Outer-Iter.   Inner-Iter.     Column Row Layer    Maximum-Head-Change  Column Row Layer    Maximum-Flux-Residual          L2-NORM 
          0                 1           2             2    2     1       0.7376293313E-02       2    2    1         0.3849553946E+00      0.7996442440E+00
          0                 2           2             4   13     1       0.6676716012E-02       4   13    1         0.3909754040E+00      0.6711649038E+00
          0                 3           2             4   13     1      -0.5882149075E-03       4   13    1        -0.3476782749E-01      0.5820241073E-01
          0                 4           1             4   13     1       0.4607331584E-04       4   13    1         0.2748787142E-02      0.4480804180E-02

    ------------------------------------------------
       NWT REQUIRED            4 OUTER ITERATIONS 
       AND A TOTAL OF          7 INNER ITERATIONS.
    ------------------------------------------------

 NO OUTPUT CONTROL FOR STRESS PERIOD    7   TIME STEP   16
 
 SOLVING FOR HEAD 
                                                   Max.-Head-Change                         Max.-Flux-Residual
  Residual-Control   Outer-Iter.   Inner-Iter.     Column Row Layer    Maximum-Head-Change  Column Row Layer    Maximum-Flux-Residual          L2-NORM 
          0                 1           2             2    2     1       0.7337428370E-02       2    2    1         0.3829116158E+00      0.7557972164E+00
          0                 2           2             4   13     1       0.5177526000E-02       4   13    1         0.3031842747E+00      0.5193634260E+00
          0                 3           2             4   13     1      -0.4561633840E-03       4   13    1        -0.2696221971E-01      0.4502004197E-01
          0                 4           1             4   13     1       0.3570691950E-04       4   13    1         0.2130259467E-02      0.3464787703E-02

    ------------------------------------------------
       NWT REQUIRED            4 OUTER ITERATIONS 
       AND A TOTAL OF          7 INNER ITERATIONS.
    ------------------------------------------------

 NO OUTPUT CONTROL FOR STRESS PERIOD    7   TIME STEP   17
 
 SOLVING FOR HEAD 
                                                   Max.-Head-Change                         Max.-Flux-Residual
  Residual-Control   Outer-Iter.   Inner-Iter.     Column Row Layer    Maximum-Head-Change  Column Row Layer    Maximum-Flux-Residual          L2-NORM 
          0                 1           2             2    2     1       0.7299106699E-02       2    2    1         0.3808964830E+00      0.8337162693E+00
          0                 2           2             2   13     1      -0.4569086308E-03       2   13    1        -0.2630874845E-01      0.5610788121E-01
          0                 3           1             2   13     1       0.3899210042E-04       2   13    1         0.2265597926E-02      0.4266476586E-02

    ------------------------------------------------
       NWT REQUIRED            3 OUTER ITERATIONS 
       AND A TOTAL OF          5 INNER ITERATIONS.
    ------------------------------------------------

 NO OUTPUT CONTROL FOR STRESS PERIOD    7   TIME STEP   18
 
 SOLVING FOR HEAD 
                                                   Max.-Head-Change                         Max.-Flux-Residual
  Residual-Control   Outer-Iter.   Inner-Iter.     Column Row Layer    Maximum-Head-Change  Column Row Layer    Maximum-Flux-Residual          L2-NORM 
          0                 1           2             2    2     1       0.7261229726E-02       2    2    1         0.3789048313E+00      0.8134992497E+00
          0                 2           2             2   13     1      -0.4177401788E-03       2   13    1        -0.2404992298E-01      0.5348176743E-01
          0                 3           1             2   13     1       0.3568992318E-04       2   13    1         0.2073416060E-02      0.4010502576E-02

    ------------------------------------------------
       NWT REQUIRED            3 OUTER ITERATIONS 
       AND A TOTAL OF          5 INNER ITERATIONS.
    ------------------------------------------------

 NO OUTPUT CONTROL FOR STRESS PERIOD    7   TIME STEP   19
 
 SOLVING FOR HEAD 
                                                   Max.-Head-Change                         Max.-Flux-Residual
  Residual-Control   Outer-Iter.   Inner-Iter.     Column Row Layer    Maximum-Head-Change  Column Row Layer    Maximum-Flux-Residual          L2-NORM 
          0                 1           2             2    2     1       0.7223879571E-02       2    2    1         0.3769409152E+00      0.7959398791E+00
          0                 2           2             2   13     1      -0.3529144734E-03       2   13    1        -0.2029782998E-01      0.5047441475E-01
          0                 3           1             3   13     1       0.2520209000E-04       3   13    1         0.1477281510E-02      0.3354902153E-02

    ------------------------------------------------
       NWT REQUIRED            3 OUTER ITERATIONS 
       AND A TOTAL OF          5 INNER ITERATIONS.
    ------------------------------------------------

 NO OUTPUT CONTROL FOR STRESS PERIOD    7   TIME STEP   20
 
 SOLVING FOR HEAD 
                                                   Max.-Head-Change                         Max.-Flux-Residual
  Residual-Control   Outer-Iter.   Inner-Iter.     Column Row Layer    Maximum-Head-Change  Column Row Layer    Maximum-Flux-Residual          L2-NORM 
          0                 1           2             2    2     1       0.7186959722E-02       2    2    1         0.3749997394E+00      0.7806595072E+00
          0                 2           2             2    2     1      -0.3224296086E-03       2    2    1        -0.1698936279E-01      0.4588427004E-01
          0                 3           1             3   13     1       0.2298654500E-04       3   13    1         0.1350363214E-02      0.3153081634E-02

    ------------------------------------------------
       NWT REQUIRED            3 OUTER ITERATIONS 
       AND A TOTAL OF          5 INNER ITERATIONS.
    ------------------------------------------------

 NO OUTPUT CONTROL FOR STRESS PERIOD    7   TIME STEP   21
 
 SOLVING FOR HEAD 
                                                   Max.-Head-Change                         Max.-Flux-Residual
  Residual-Control   Outer-Iter.   Inner-Iter.     Column Row Layer    Maximum-Head-Change  Column Row Layer    Maximum-Flux-Residual          L2-NORM 
          0                 1           2             2    2     1       0.7150637402E-02       2    2    1         0.3730900138E+00      0.7671281404E+00
          0                 2           2             2    2     1      -0.3207820903E-03       2    2    1        -0.1690204811E-01      0.4455666923E-01
          0                 3           1             3   13     1       0.2099992328E-04       3   13    1         0.1233765933E-02      0.3026852293E-02

    ------------------------------------------------
       NWT REQUIRED            3 OUTER ITERATIONS 
       AND A TOTAL OF          5 INNER ITERATIONS.
    ------------------------------------------------

 NO OUTPUT CONTROL FOR STRESS PERIOD    7   TIME STEP   22
 
 SOLVING FOR HEAD 
                                                   Max.-Head-Change                         Max.-Flux-Residual
  Residual-Control   Outer-Iter.   Inner-Iter.     Column Row Layer    Maximum-Head-Change  Column Row Layer    Maximum-Flux-Residual          L2-NORM 
          0                 1           2             2    2     1       0.7114728987E-02       2    2    1         0.3712021214E+00      0.7553413081E+00
          0                 2           2             2    2     1      -0.3191534403E-03       2    2    1        -0.1681573550E-01      0.4319045596E-01
          0                 3           1             3   13     1       0.1922334712E-04       3   13    1         0.1129472653E-02      0.2878209244E-02

    ------------------------------------------------
       NWT REQUIRED            3 OUTER ITERATIONS 
       AND A TOTAL OF          5 INNER ITERATIONS.
    ------------------------------------------------

 NO OUTPUT CONTROL FOR STRESS PERIOD    7   TIME STEP   23
 
 SOLVING FOR HEAD 
                                                   Max.-Head-Change                         Max.-Flux-Residual
  Residual-Control   Outer-Iter.   Inner-Iter.     Column Row Layer    Maximum-Head-Change  Column Row Layer    Maximum-Flux-Residual          L2-NORM 
          0                 1           2             2    2     1       0.7079313929E-02       2    2    1         0.3693402589E+00      0.7028668010E+00
          0                 2           2             4   13     1       0.1103371774E-02       4   13    1         0.6463069836E-01      0.1119702917E+00
          0                 3           1             4   13     1      -0.9722798283E-04       4   13    1        -0.5747671863E-02      0.8703938766E-02

    ------------------------------------------------
       NWT REQUIRED            3 OUTER ITERATIONS 
       AND A TOTAL OF          5 INNER ITERATIONS.
    ------------------------------------------------

 NO OUTPUT CONTROL FOR STRESS PERIOD    7   TIME STEP   24
 
 SOLVING FOR HEAD 
                                                   Max.-Head-Change                         Max.-Flux-Residual
  Residual-Control   Outer-Iter.   Inner-Iter.     Column Row Layer    Maximum-Head-Change  Column Row Layer    Maximum-Flux-Residual          L2-NORM 
          0                 1           2             2    2     1       0.7044296957E-02       2    2    1         0.3674993971E+00      0.8891328072E+00
          0                 2           2             4   13     1       0.6852895910E-02       4   13    1         0.4013469412E+00      0.6903739265E+00
          0                 3           2             4   13     1      -0.6038127084E-03       4   13    1        -0.3569510862E-01      0.5764546258E-01
          0                 4           1             4   13     1       0.4727732564E-04       4   13    1         0.2821143467E-02      0.4025356647E-02

    ------------------------------------------------
       NWT REQUIRED            4 OUTER ITERATIONS 
       AND A TOTAL OF          7 INNER ITERATIONS.
    ------------------------------------------------

 NO OUTPUT CONTROL FOR STRESS PERIOD    7   TIME STEP   25
 
 SOLVING FOR HEAD 
                                                   Max.-Head-Change                         Max.-Flux-Residual
  Residual-Control   Outer-Iter.   Inner-Iter.     Column Row Layer    Maximum-Head-Change  Column Row Layer    Maximum-Flux-Residual          L2-NORM 
          0                 1           2             2    2     1       0.7009760161E-02       2    2    1         0.3656838483E+00      0.8905650414E+00
          0                 2           2             4   13     1       0.6855044736E-02       4   13    1         0.4014727008E+00      0.6909557751E+00
          0                 3           2             4   13     1      -0.6040022886E-03       4   13    1        -0.3570632130E-01      0.5782000403E-01
          0                 4           1             4   13     1       0.4729555362E-04       4   13    1         0.2822229600E-02      0.4036042027E-02

    ------------------------------------------------
       NWT REQUIRED            4 OUTER ITERATIONS 
       AND A TOTAL OF          7 INNER ITERATIONS.
    ------------------------------------------------

 NO OUTPUT CONTROL FOR STRESS PERIOD    7   TIME STEP   26
 
 SOLVING FOR HEAD 
                                                   Max.-Head-Change                         Max.-Flux-Residual
  Residual-Control   Outer-Iter.   Inner-Iter.     Column Row Layer    Maximum-Head-Change  Column Row Layer    Maximum-Flux-Residual          L2-NORM 
          0                 1           2             2    2     1       0.6975693997E-02       2    2    1         0.3638930887E+00      0.8918348584E+00
          0                 2           2             4   13     1       0.6857027652E-02       4   13    1         0.4015887927E+00      0.6914896046E+00
          0                 3           2             4   13     1      -0.6041656208E-03       4   13    1        -0.3571597668E-01      0.5797796000E-01
          0                 4           1             4   13     1       0.4730706396E-04       4   13    1         0.2822927756E-02      0.4038530644E-02

    ------------------------------------------------
       NWT REQUIRED            4 OUTER ITERATIONS 
       AND A TOTAL OF          7 INNER ITERATIONS.
    ------------------------------------------------

 NO OUTPUT CONTROL FOR STRESS PERIOD    7   TIME STEP   27
 
 SOLVING FOR HEAD 
                                                   Max.-Head-Change                         Max.-Flux-Residual
  Residual-Control   Outer-Iter.   Inner-Iter.     Column Row Layer    Maximum-Head-Change  Column Row Layer    Maximum-Flux-Residual          L2-NORM 
          0                 1           2             2    2     1       0.6942090721E-02       2    2    1         0.3621267294E+00      0.8929420765E+00
          0                 2           2             4   13     1       0.6317166535E-02       4   13    1         0.3699123033E+00      0.6368696403E+00
          0                 3           2             4   13     1      -0.5566252308E-03       4   13    1        -0.3290012561E-01      0.5405298025E-01
          0                 4           1             4   13     1       0.4358593240E-04       4   13    1         0.2600442514E-02      0.3727432704E-02

    ------------------------------------------------
       NWT REQUIRED            4 OUTER ITERATIONS 
       AND A TOTAL OF          7 INNER ITERATIONS.
    ------------------------------------------------

 NO OUTPUT CONTROL FOR STRESS PERIOD    7   TIME STEP   28
 
 SOLVING FOR HEAD 
                                                   Max.-Head-Change                         Max.-Flux-Residual
  Residual-Control   Outer-Iter.   Inner-Iter.     Column Row Layer    Maximum-Head-Change  Column Row Layer    Maximum-Flux-Residual          L2-NORM 
          0                 1           2             2    2     1       0.6908855192E-02       2    2    1         0.3603797905E+00      0.8907974957E+00
          0                 2           2             4   13     1       0.6232948940E-02       4   13    1         0.3649706927E+00      0.6286844002E+00
          0                 3           2             4   13     1      -0.5492239895E-03       4   13    1        -0.3246177928E-01      0.5349213345E-01
          0                 4           1             4   13     1       0.4302192290E-04       4   13    1         0.2566731513E-02      0.3680962899E-02

    ------------------------------------------------
       NWT REQUIRED            4 OUTER ITERATIONS 
       AND A TOTAL OF          7 INNER ITERATIONS.
    ------------------------------------------------

 NO OUTPUT CONTROL FOR STRESS PERIOD    7   TIME STEP   29
 
 SOLVING FOR HEAD 
                                                   Max.-Head-Change                         Max.-Flux-Residual
  Residual-Control   Outer-Iter.   Inner-Iter.     Column Row Layer    Maximum-Head-Change  Column Row Layer    Maximum-Flux-Residual          L2-NORM 
          0                 1           2             4   13     1      -0.1454339809E-01       4   13    1        -0.8403599075E+00      0.1527276228E+01
          0                 2           2             4   13     1       0.6960361083E-02       4   13    1         0.4064854953E+00      0.6987617616E+00
          0                 3           2             4   13     1      -0.6136620718E-03       4   13    1        -0.3617380429E-01      0.6074244205E-01
          0                 4           1             4   13     1       0.4809071376E-04       4   13    1         0.2861354065E-02      0.4686836599E-02

    ------------------------------------------------
       NWT REQUIRED            4 OUTER ITERATIONS 
       AND A TOTAL OF          7 INNER ITERATIONS.
    ------------------------------------------------

 NO OUTPUT CONTROL FOR STRESS PERIOD    7   TIME STEP   30



 STREAM LISTING     PERIOD      7   STEP       30

 LAYER ROW COL. STREAM  RCH.  FLOW INTO     FLOW TO   FLOW OUT OF   OVRLND.     DIRECT     STREAM       STREAM     STREAM     STREAM   STREAMBED  STREAMBED
                SEG.NO.  NO.  STRM. RCH.    AQUIFER    STRM. RCH.    RUNOFF     PRECIP       ET          HEAD       DEPTH      WIDTH   CONDCTNC.   GRADIENT

   1    1    1     1     1    7.6644E+01  4.2624E-01   7.6218E+01  0.000E+00  0.000E+00  0.000E+00  1.09475E+03  1.706E+00  2.013E+01  9.057E-02  1.569E+00
   1    2    2     1     2    7.6218E+01  6.6113E-01   7.5556E+01  0.000E+00  0.000E+00  0.000E+00  1.08976E+03  1.704E+00  2.008E+01  1.405E-01  1.568E+00
   1    3    3     1     3    7.5556E+01  5.6483E-01   7.4992E+01  0.000E+00  0.000E+00  0.000E+00  1.08412E+03  1.701E+00  2.002E+01  1.201E-01  1.567E+00
   1    3    4     1     4    7.4992E+01  5.2063E-01   7.4471E+01  0.000E+00  0.000E+00  0.000E+00  1.07910E+03  1.697E+00  1.997E+01  1.108E-01  1.566E+00
   1    4    5     2     1    7.2471E+01  4.1207E-01   7.2059E+01  0.000E+00  0.000E+00  0.000E+00  1.07422E+03  2.283E+00  1.200E+01  7.800E-02  1.761E+00
   1    5    6     2     2    7.2059E+01  3.1656E-01   7.1742E+01  0.000E+00  0.000E+00  0.000E+00  1.06879E+03  2.276E+00  1.200E+01  6.000E-02  1.759E+00
   1    6    6     2     3    7.1742E+01  3.1620E-01   7.1426E+01  0.000E+00  0.000E+00  0.000E+00  1.06406E+03  2.270E+00  1.200E+01  6.000E-02  1.757E+00
   1    7    6     2     4    7.1426E+01  3.1584E-01   7.1110E+01  0.000E+00  0.000E+00  0.000E+00  1.05934E+03  2.264E+00  1.200E+01  6.000E-02  1.755E+00
   1    8    6     2     5    7.1110E+01  3.1548E-01   7.0795E+01  0.000E+00  0.000E+00  0.000E+00  1.05462E+03  2.258E+00  1.200E+01  6.000E-02  1.753E+00
   1    3    5     3     1    2.0000E+00  2.8252E-01   1.7175E+00  0.000E+00  0.000E+00  0.000E+00  1.07555E+03  1.909E+00  9.636E+00  7.227E-02  1.955E+00
   1    3    6     3     2    1.7175E+00  2.4905E-01   1.4684E+00  0.000E+00  0.000E+00  0.000E+00  1.07264E+03  1.727E+00  8.909E+00  6.682E-02  1.864E+00
   1    3    7     3     3    1.4684E+00  1.9718E-01   1.2712E+00  0.000E+00  0.000E+00  0.000E+00  1.06987E+03  1.555E+00  8.218E+00  5.547E-02  1.777E+00
   1    4    8     3     4    1.2712E+00  2.2567E-01   1.0456E+00  0.000E+00  0.000E+00  0.000E+00  1.06682E+03  1.364E+00  7.455E+00  6.709E-02  1.682E+00
   1    5    8     3     5    1.0456E+00  1.5790E-01   8.8768E-01  0.000E+00  0.000E+00  0.000E+00  1.06362E+03  1.164E+00  6.655E+00  4.991E-02  1.582E+00
   1    6    8     3     6    8.8768E-01  5.5980E-02   8.3170E-01  0.000E+00  0.000E+00  0.000E+00  1.06158E+03  1.036E+00  6.145E+00  1.844E-02  1.518E+00
   1    5   10     4     1    1.0000E+01  9.0919E-02   9.9091E+00  0.000E+00  0.000E+00  0.000E+00  1.07836E+03  6.368E-01  1.000E+01  2.500E-02  1.212E+00
   1    5    9     4     2    9.9091E+00  1.8158E-01   9.7275E+00  0.000E+00  0.000E+00  0.000E+00  1.07154E+03  6.315E-01  1.000E+01  5.000E-02  1.211E+00
   1    6    8     4     3    9.7275E+00  1.2689E-01   9.6006E+00  0.000E+00  0.000E+00  0.000E+00  1.06381E+03  6.256E-01  1.000E+01  3.500E-02  1.209E+00
   1    6    8     5     1    1.0432E+01  2.2686E-01   1.0205E+01  0.000E+00  0.000E+00  0.000E+00  1.05868E+03  6.790E-01  1.542E+01  6.166E-02  1.226E+00
   1    7    7     5     2    1.0205E+01  2.7894E-01   9.9265E+00  0.000E+00  0.000E+00  0.000E+00  1.05417E+03  6.732E-01  1.519E+01  7.594E-02  1.224E+00
   1    8    7     5     3    9.9265E+00  1.9221E-01   9.7343E+00  0.000E+00  0.000E+00  0.000E+00  1.04992E+03  6.676E-01  1.497E+01  5.241E-02  1.223E+00
   1    8    6     5     4    9.7343E+00  1.3577E-01   9.5985E+00  0.000E+00  0.000E+00  0.000E+00  1.04691E+03  6.637E-01  1.482E+01  3.706E-02  1.221E+00
   1    9    6     6     1    7.4919E+01  3.2136E-01   7.4598E+01  0.000E+00  0.000E+00  0.000E+00  1.04508E+03  2.356E+00  1.200E+01  6.000E-02  1.785E+00
   1   10    7     6     2    7.4598E+01  3.2099E-01   7.4277E+01  0.000E+00  0.000E+00  0.000E+00  1.04053E+03  2.350E+00  1.200E+01  6.000E-02  1.783E+00
   1   11    7     6     3    7.4277E+01  3.2063E-01   7.3956E+01  0.000E+00  0.000E+00  0.000E+00  1.03598E+03  2.344E+00  1.200E+01  6.000E-02  1.781E+00
   1   12    7     6     4    7.3956E+01  3.2026E-01   7.3636E+01  0.000E+00  0.000E+00  0.000E+00  1.03143E+03  2.338E+00  1.200E+01  6.000E-02  1.779E+00
   1   13    7     6     5    7.3636E+01  2.6794E-02   7.3609E+01  0.000E+00  0.000E+00  0.000E+00  1.02824E+03  2.334E+00  1.200E+01  2.400E-02  3.721E-01
   1   14    9     7     1    1.5000E+02  1.3377E+00   1.4866E+02  0.000E+00  0.000E+00  0.000E+00  1.03987E+03  2.288E+00  5.529E+01  5.593E-01  7.973E-01
   1   13    8     7     2    1.4866E+02  1.8241E+00   1.4684E+02  0.000E+00  0.000E+00  0.000E+00  1.03478E+03  2.279E+00  5.526E+01  6.148E-01  9.890E-01
   1   13    7     7     3    1.4684E+02  1.4313E+00   1.4541E+02  0.000E+00  0.000E+00  0.000E+00  1.02969E+03  2.271E+00  5.522E+01  5.585E-01  8.543E-01
   1   13    6     8     1    2.1902E+02  1.0847E+00   2.1793E+02  0.000E+00  0.000E+00  0.000E+00  1.02512E+03  3.243E+00  4.703E+01  4.792E-01  7.544E-01
   1   13    5     8     2    2.1793E+02  3.0529E-01   2.1763E+02  0.000E+00  0.000E+00  0.000E+00  1.01886E+03  3.240E+00  4.697E+01  4.787E-01  2.126E-01
   1   13    4     8     3    2.1763E+02 -2.1752E+00   2.1980E+02  0.000E+00  0.000E+00  0.000E+00  1.01262E+03  3.245E+00  4.705E+01  4.794E+00 -1.512E-01
   1   13    3     8     4    2.1980E+02 -3.4158E+00   2.2322E+02  0.000E+00  0.000E+00  0.000E+00  1.00639E+03  3.260E+00  4.727E+01  4.817E+00 -2.364E-01
   1   13    2     8     5    2.2322E+02 -2.5497E+00   2.2577E+02  0.000E+00  0.000E+00  0.000E+00  1.00015E+03  3.277E+00  4.751E+01  4.842E+00 -1.755E-01
   1   13    1     8     6    2.2577E+02 -1.6156E+00   2.2738E+02  0.000E+00  0.000E+00  0.000E+00  9.95163E+02  3.288E+00  4.768E+01  2.915E+00 -1.847E-01
   1    6    8     9     1    5.4743E+00  0.0000E+00   5.4743E+00  0.000E+00  0.000E+00  0.000E+00  1.07888E+03  3.754E-01  4.000E+00  0.000E+00  1.125E+00





UNSATURATED ZONE PACKAGE VOLUMETRIC BUDGET FOR  TIME STEP    30 STRESS PERIOD    7
  ------------------------------------------------------------------------------



     CUMULATIVE VOLUMES      L**3       RATES FOR THIS TIME STEP      L**3/T
     ------------------                 ------------------------

           IN:                                      IN:
           ---                                      ---
        INFILTRATION =    20675967.6328          INFILTRATION =           5.4744

          OUT:                                     OUT:
          ----                                     ----
              UZF ET =     8801225.8381                UZF ET =           2.0302
        UZF RECHARGE =     1844586.5779          UZF RECHARGE =           0.1290

            IN - OUT =    10030155.2168              IN - OUT =           3.3152

          STORAGE:                                 STORAGE:
          --------                                 --------
      STORAGE CHANGE =    10033790.3111        STORAGE CHANGE =           3.3152

 PERCENT DISCREPANCY IS DIFFERENCE BETWEEN IN-OUT MINUS CHANGE IN STORAGE
 DIVIDED BY THE AVERAGE OF IN AND OUT TIMES 100

 PERCENT DISCREPANCY =          -0.00     PERCENT DISCREPANCY =          -0.00






1
  VOLUMETRIC BUDGET FOR ENTIRE MODEL AT END OF TIME STEP   30, STRESS PERIOD   7
  ------------------------------------------------------------------------------

     CUMULATIVE VOLUMES      L**3       RATES FOR THIS TIME STEP      L**3/T
     ------------------                 ------------------------

           IN:                                      IN:
           ---                                      ---
    AWU WELLS            =     7586558.5000      AWU WELLS            =           0.0000
    DIVERSION SEGMENTS   =    13016186.0000      DIVERSION SEGMENTS   =           5.4744
    GW IRRIGATION        =           0.0000      GW IRRIGATION        =           0.0000
    SW IRRIGATION        =           0.0000      SW IRRIGATION        =           0.0000
    EFFICIENCY FACTOR GW =           0.0000      EFFICIENCY FACTOR GW =           0.0000
    EFFICIENCY FACTOR SW =           0.0000      EFFICIENCY FACTOR SW =           0.0000

                TOTAL IN =    20602744.0000                  TOTAL IN =           5.4744

          OUT:                                     OUT:
          ----                                     ----
    AWU WELLS            =           0.0000      AWU WELLS            =           0.0000
    DIVERSION SEGMENTS   =           0.0000      DIVERSION SEGMENTS   =           0.0000
    GW IRRIGATION        =     7586558.5000      GW IRRIGATION        =           0.0000
    SW IRRIGATION        =    13016186.0000      SW IRRIGATION        =           5.4744
    EFFICIENCY FACTOR GW =           0.0000      EFFICIENCY FACTOR GW =           0.0000
    EFFICIENCY FACTOR SW =           0.0000      EFFICIENCY FACTOR SW =           0.0000

               TOTAL OUT =    20602744.0000                 TOTAL OUT =           5.4744

                IN - OUT =           0.0000                  IN - OUT =           0.0000

     PERCENT DISCREPANCY =           0.00         PERCENT DISCREPANCY =           0.00



1
  VOLUMETRIC BUDGET FOR ENTIRE MODEL AT END OF TIME STEP   30, STRESS PERIOD   7
  ------------------------------------------------------------------------------

     CUMULATIVE VOLUMES      L**3       RATES FOR THIS TIME STEP      L**3/T
     ------------------                 ------------------------

           IN:                                      IN:
           ---                                      ---
             STORAGE     =    21989644.0000               STORAGE     =           2.0753
       CONSTANT HEAD     =           0.0000         CONSTANT HEAD     =           0.0000
     HEAD DEP BOUNDS     =     4531934.5000       HEAD DEP BOUNDS     =           0.2859
      STREAM LEAKAGE     =   195763584.0000        STREAM LEAKAGE     =          13.5435
        UZF RECHARGE     =     1844586.8750          UZF RECHARGE     =           0.1290
               GW ET     =           0.0000                 GW ET     =           0.0000
     SURFACE LEAKAGE     =           0.0000       SURFACE LEAKAGE     =           0.0000
    AWU WELLS            =           0.0000      AWU WELLS            =           0.0000

                TOTAL IN =   224129760.0000                  TOTAL IN =          16.0337

          OUT:                                     OUT:
          ----                                     ----
             STORAGE     =    42697892.0000               STORAGE     =           2.7941
       CONSTANT HEAD     =           0.0000         CONSTANT HEAD     =           0.0000
     HEAD DEP BOUNDS     =     4610222.0000       HEAD DEP BOUNDS     =           0.2933
      STREAM LEAKAGE     =   156572272.0000        STREAM LEAKAGE     =           9.7562
        UZF RECHARGE     =           0.0000          UZF RECHARGE     =           0.0000
               GW ET     =    12672099.0000                 GW ET     =           3.1908
     SURFACE LEAKAGE     =           0.0000       SURFACE LEAKAGE     =           0.0000
    AWU WELLS            =     7586558.5000      AWU WELLS            =           0.0000

               TOTAL OUT =   224139040.0000                 TOTAL OUT =          16.0344

                IN - OUT =       -9280.0000                  IN - OUT =      -6.8855E-04

     PERCENT DISCREPANCY =          -0.00         PERCENT DISCREPANCY =          -0.00






         TIME SUMMARY AT END OF TIME STEP   30 IN STRESS PERIOD    7
                    SECONDS     MINUTES      HOURS       DAYS        YEARS
                    -----------------------------------------------------------
   TIME STEP LENGTH  87600.      1460.0      24.333      1.0139     2.77588E-03
 STRESS PERIOD TIME 2.62800E+06  43800.      730.00      30.417     8.32763E-02
         TOTAL TIME 1.58544E+07 2.64240E+05  4404.0      183.50     0.50240    
1
1
                            STRESS PERIOD NO.    8, LENGTH =   2628000.    
                            -----------------------------------------------

                              NUMBER OF TIME STEPS =    30

                               MULTIPLIER FOR DELT =     1.000

                            INITIAL TIME STEP SIZE =   87600.00    

 REUSING NON-PARAMETER GHB CELLS FROM LAST STRESS PERIOD

      2 GHB CELLS

 REUSING STREAM SEGMENT DATA FROM LAST STRESS PERIOD



            AREAL INFILTRATION RATE
 READING ON UNIT   19 WITH FORMAT: (10F4.0)            

            1           2           3           4           5           6           7           8           9          10
 ........................................................................................................................
   1    0.000       0.000       0.000       0.000       0.000       0.000       0.000       0.000       0.000       0.000    
   2    0.000       0.000       0.000       0.000       0.000       0.000       0.000       0.000       0.000       0.000    
   3    0.000       0.000       0.000       0.000       0.000       0.000       0.000       0.000       0.000       0.000    
   4    0.000       0.000       0.000       0.000       0.000       0.000       0.000       0.000       0.000       0.000    
   5    0.000       0.000       0.000       0.000       0.000       0.000       0.000       0.000       0.000       0.000    
   6    0.000       0.000       0.000       0.000       0.000       0.000       0.000       0.000       0.000       0.000    
   7    0.000       0.000       0.000       0.000       0.000       0.000       0.000       0.000       0.000       0.000    
   8    0.000       0.000       0.000       0.000       0.000       0.000       0.000       0.000       0.000       0.000    
   9    0.000       0.000       0.000       0.000       0.000       0.000       0.000       0.000       0.000       0.000    
  10    0.000       0.000       0.000       0.000       0.000       0.000       0.000       0.000       0.000       0.000    
  11    0.000       0.000       0.000       0.000       0.000       0.000       0.000       0.000       0.000       0.000    
  12    0.000       0.000       0.000       0.000       0.000       0.000       0.000       0.000       0.000       0.000    
  13    0.000       0.000       0.000       0.000       0.000       0.000       0.000       0.000       0.000       0.000    
  14    0.000       0.000       0.000       0.000       0.000       0.000       0.000       0.000       0.000       0.000    
  15    0.000       0.000       0.000       0.000       0.000       0.000       0.000       0.000       0.000       0.000    

                  ET RATE =  8.000000E-08

 USING ET EXTINCTION DEPTH FROM PREVIOUS STRESS PERIOD. CURRENT PERIOD IS:       8

 USING EXTINCTION WATER CONTENT FROM PREVIOUS STRESS PERIOD. CURRENT PERIOD IS:       8

 PROCESSING AWU STRESS PERIOD DATA

 READING AWU STRESS PERIOD DATA

 READING IRRIGATION STREAM

 READING IRRIGATION WELL

 READING SUPPLEMENTAL WEL

 END PROCESSING AWU STRESS PERIOD DATA OPTIONS
 
 SOLVING FOR HEAD 
                                                   Max.-Head-Change                         Max.-Flux-Residual
  Residual-Control   Outer-Iter.   Inner-Iter.     Column Row Layer    Maximum-Head-Change  Column Row Layer    Maximum-Flux-Residual          L2-NORM 
          0                 1           2             4   13     1      -0.3493438681E-01       4   13    1        -0.2014044486E+01      0.4686988880E+01
          0                 2           2             4   13     1       0.3424158390E-02       4   13    1         0.1992276357E+00      0.4597808679E+00
          0                 3           2             4   13     1      -0.3017059415E-03       4   13    1        -0.1771644677E-01      0.4066242843E-01
          0                 4           1             4   13     1       0.2362568509E-04       4   13    1         0.1400149242E-02      0.3198605763E-02

    ------------------------------------------------
       NWT REQUIRED            4 OUTER ITERATIONS 
       AND A TOTAL OF          7 INNER ITERATIONS.
    ------------------------------------------------

 OUTPUT CONTROL FOR STRESS PERIOD    8   TIME STEP    1
    PRINT BUDGET
    SAVE BUDGET
 UBDSV1 SAVING "         STORAGE" ON UNIT 102 AT TIME STEP     1, STRESS PERIOD   8
 UBDSV2 SAVING "   CONSTANT HEAD" ON UNIT 102 AT TIME STEP     1, STRESS PERIOD   8
 UBDSV1 SAVING "FLOW RIGHT FACE " ON UNIT 102 AT TIME STEP     1, STRESS PERIOD   8
 UBDSV1 SAVING "FLOW FRONT FACE " ON UNIT 102 AT TIME STEP     1, STRESS PERIOD   8

  HEAD DEP BOUNDS   PERIOD    8   STEP     1
 BOUNDARY      1   LAYER   1   ROW    13   COL     1   RATE   -0.292308    
 BOUNDARY      2   LAYER   1   ROW    14   COL     9   RATE    0.285889    



 STREAM LISTING     PERIOD      8   STEP        1

 LAYER ROW COL. STREAM  RCH.  FLOW INTO     FLOW TO   FLOW OUT OF   OVRLND.     DIRECT     STREAM       STREAM     STREAM     STREAM   STREAMBED  STREAMBED
                SEG.NO.  NO.  STRM. RCH.    AQUIFER    STRM. RCH.    RUNOFF     PRECIP       ET          HEAD       DEPTH      WIDTH   CONDCTNC.   GRADIENT

   1    1    1     1     1    6.3000E+01  3.8236E-01   6.2618E+01  0.000E+00  0.000E+00  0.000E+00  1.09461E+03  1.562E+00  1.863E+01  8.382E-02  1.521E+00
   1    2    2     1     2    6.2618E+01  5.9218E-01   6.2025E+01  0.000E+00  0.000E+00  0.000E+00  1.08961E+03  1.556E+00  1.857E+01  1.300E-01  1.519E+00
   1    3    3     1     3    6.2025E+01  5.0506E-01   6.1520E+01  0.000E+00  0.000E+00  0.000E+00  1.08397E+03  1.549E+00  1.850E+01  1.110E-01  1.516E+00
   1    3    4     1     4    6.1520E+01  4.6510E-01   6.1055E+01  0.000E+00  0.000E+00  0.000E+00  1.07895E+03  1.543E+00  1.845E+01  1.024E-01  1.514E+00
   1    4    5     2     1    5.9055E+01  3.9145E-01   5.8664E+01  0.000E+00  0.000E+00  0.000E+00  1.07395E+03  2.019E+00  1.200E+01  7.800E-02  1.673E+00
   1    5    6     2     2    5.8664E+01  3.0068E-01   5.8363E+01  0.000E+00  0.000E+00  0.000E+00  1.06852E+03  2.011E+00  1.200E+01  6.000E-02  1.670E+00
   1    6    6     2     3    5.8363E+01  3.0031E-01   5.8063E+01  0.000E+00  0.000E+00  0.000E+00  1.06380E+03  2.005E+00  1.200E+01  6.000E-02  1.668E+00
   1    7    6     2     4    5.8063E+01  2.9994E-01   5.7763E+01  0.000E+00  0.000E+00  0.000E+00  1.05907E+03  1.999E+00  1.200E+01  6.000E-02  1.666E+00
   1    8    6     2     5    5.7763E+01  2.9957E-01   5.7463E+01  0.000E+00  0.000E+00  0.000E+00  1.05435E+03  1.993E+00  1.200E+01  6.000E-02  1.664E+00
   1    3    5     3     1    2.0000E+00  2.8252E-01   1.7175E+00  0.000E+00  0.000E+00  0.000E+00  1.07555E+03  1.909E+00  9.636E+00  7.227E-02  1.955E+00
   1    3    6     3     2    1.7175E+00  2.4905E-01   1.4684E+00  0.000E+00  0.000E+00  0.000E+00  1.07264E+03  1.727E+00  8.909E+00  6.682E-02  1.864E+00
   1    3    7     3     3    1.4684E+00  1.9718E-01   1.2712E+00  0.000E+00  0.000E+00  0.000E+00  1.06987E+03  1.555E+00  8.218E+00  5.547E-02  1.777E+00
   1    4    8     3     4    1.2712E+00  2.2567E-01   1.0456E+00  0.000E+00  0.000E+00  0.000E+00  1.06682E+03  1.364E+00  7.455E+00  6.709E-02  1.682E+00
   1    5    8     3     5    1.0456E+00  1.5790E-01   8.8768E-01  0.000E+00  0.000E+00  0.000E+00  1.06362E+03  1.164E+00  6.655E+00  4.991E-02  1.582E+00
   1    6    8     3     6    8.8768E-01  5.5980E-02   8.3170E-01  0.000E+00  0.000E+00  0.000E+00  1.06158E+03  1.036E+00  6.145E+00  1.844E-02  1.518E+00
   1    5   10     4     1    1.0000E+01  9.0919E-02   9.9091E+00  0.000E+00  0.000E+00  0.000E+00  1.07836E+03  6.368E-01  1.000E+01  2.500E-02  1.212E+00
   1    5    9     4     2    9.9091E+00  1.8158E-01   9.7275E+00  0.000E+00  0.000E+00  0.000E+00  1.07154E+03  6.315E-01  1.000E+01  5.000E-02  1.211E+00
   1    6    8     4     3    9.7275E+00  1.2689E-01   9.6006E+00  0.000E+00  0.000E+00  0.000E+00  1.06381E+03  6.256E-01  1.000E+01  3.500E-02  1.209E+00
   1    6    8     5     1    1.0432E+01  2.2686E-01   1.0205E+01  0.000E+00  0.000E+00  0.000E+00  1.05868E+03  6.790E-01  1.542E+01  6.166E-02  1.226E+00
   1    7    7     5     2    1.0205E+01  2.7894E-01   9.9265E+00  0.000E+00  0.000E+00  0.000E+00  1.05417E+03  6.732E-01  1.519E+01  7.594E-02  1.224E+00
   1    8    7     5     3    9.9265E+00  1.9221E-01   9.7343E+00  0.000E+00  0.000E+00  0.000E+00  1.04992E+03  6.676E-01  1.497E+01  5.241E-02  1.223E+00
   1    8    6     5     4    9.7343E+00  1.3577E-01   9.5985E+00  0.000E+00  0.000E+00  0.000E+00  1.04691E+03  6.637E-01  1.482E+01  3.706E-02  1.221E+00
   1    9    6     6     1    5.6651E+01  2.9950E-01   5.6351E+01  0.000E+00  0.000E+00  0.000E+00  1.04472E+03  1.992E+00  1.200E+01  6.000E-02  1.664E+00
   1   10    7     6     2    5.6351E+01  2.9912E-01   5.6052E+01  0.000E+00  0.000E+00  0.000E+00  1.04017E+03  1.985E+00  1.200E+01  6.000E-02  1.662E+00
   1   11    7     6     3    5.6052E+01  2.9874E-01   5.5754E+01  0.000E+00  0.000E+00  0.000E+00  1.03562E+03  1.979E+00  1.200E+01  6.000E-02  1.660E+00
   1   12    7     6     4    5.5754E+01  2.9836E-01   5.5455E+01  0.000E+00  0.000E+00  0.000E+00  1.03106E+03  1.973E+00  1.200E+01  6.000E-02  1.658E+00
   1   13    7     6     5    5.5455E+01  1.8099E-02   5.5437E+01  0.000E+00  0.000E+00  0.000E+00  1.02788E+03  1.969E+00  1.200E+01  2.400E-02  2.514E-01
   1   14    9     7     1    1.5000E+02  1.3377E+00   1.4866E+02  0.000E+00  0.000E+00  0.000E+00  1.03987E+03  2.288E+00  5.529E+01  5.593E-01  7.973E-01
   1   13    8     7     2    1.4866E+02  1.8241E+00   1.4684E+02  0.000E+00  0.000E+00  0.000E+00  1.03478E+03  2.279E+00  5.526E+01  6.148E-01  9.890E-01
   1   13    7     7     3    1.4684E+02  1.4329E+00   1.4541E+02  0.000E+00  0.000E+00  0.000E+00  1.02969E+03  2.271E+00  5.522E+01  5.585E-01  8.553E-01
   1   13    6     8     1    2.0084E+02  1.0059E+00   1.9984E+02  0.000E+00  0.000E+00  0.000E+00  1.02501E+03  3.140E+00  4.553E+01  4.639E-01  7.228E-01
   1   13    5     8     2    1.9984E+02  2.5614E-01   1.9958E+02  0.000E+00  0.000E+00  0.000E+00  1.01876E+03  3.136E+00  4.547E+01  4.634E-01  1.843E-01
   1   13    4     8     3    1.9958E+02 -2.4342E+00   2.0201E+02  0.000E+00  0.000E+00  0.000E+00  1.01252E+03  3.142E+00  4.556E+01  4.643E+00 -1.747E-01
   1   13    3     8     4    2.0201E+02 -3.6365E+00   2.0565E+02  0.000E+00  0.000E+00  0.000E+00  1.00629E+03  3.160E+00  4.582E+01  4.669E+00 -2.596E-01
   1   13    2     8     5    2.0565E+02 -2.8317E+00   2.0848E+02  0.000E+00  0.000E+00  0.000E+00  1.00005E+03  3.179E+00  4.609E+01  4.697E+00 -2.010E-01
   1   13    1     8     6    2.0848E+02 -1.7695E+00   2.1025E+02  0.000E+00  0.000E+00  0.000E+00  9.95067E+02  3.192E+00  4.628E+01  2.830E+00 -2.084E-01
   1    6    8     9     1    1.0411E+01  0.0000E+00   1.0411E+01  0.000E+00  0.000E+00  0.000E+00  1.07905E+03  5.521E-01  4.000E+00  0.000E+00  1.184E+00



 UBDSV3 SAVING "           GW ET" ON UNIT  61 AT TIME STEP     1, STRESS PERIOD   8
 UBDSV3 SAVING "    UZF RECHARGE" ON UNIT  61 AT TIME STEP     1, STRESS PERIOD   8
 UBDSV3 SAVING " SURFACE LEAKAGE" ON UNIT  61 AT TIME STEP     1, STRESS PERIOD   8
 UBDSV3 SAVING "       HORT+DUNN" ON UNIT  61 AT TIME STEP     1, STRESS PERIOD   8
 UBDSV3 SAVING "  STORAGE CHANGE" ON UNIT  61 AT TIME STEP     1, STRESS PERIOD   8


UNSATURATED ZONE PACKAGE VOLUMETRIC BUDGET FOR  TIME STEP     1 STRESS PERIOD    8
  ------------------------------------------------------------------------------



     CUMULATIVE VOLUMES      L**3       RATES FOR THIS TIME STEP      L**3/T
     ------------------                 ------------------------

           IN:                                      IN:
           ---                                      ---
        INFILTRATION =    22249597.5703          INFILTRATION =          17.9638

          OUT:                                     OUT:
          ----                                     ----
              UZF ET =     9222216.5881                UZF ET =           4.8058
        UZF RECHARGE =     1853575.7229          UZF RECHARGE =           0.1026

            IN - OUT =    11173805.2593              IN - OUT =          13.0554

          STORAGE:                                 STORAGE:
          --------                                 --------
      STORAGE CHANGE =    11177441.4101        STORAGE CHANGE =          13.0554

 PERCENT DISCREPANCY IS DIFFERENCE BETWEEN IN-OUT MINUS CHANGE IN STORAGE
 DIVIDED BY THE AVERAGE OF IN AND OUT TIMES 100

 PERCENT DISCREPANCY =          -0.00     PERCENT DISCREPANCY =          -0.00






 

 AWU WELLS                PERIOD    8   STEP   1
 AWU WELL      1   LAYER   1   ROW     6   COL     4   RATE    -1.25877    
 AWU WELL      2   LAYER   1   ROW     6   COL     5   RATE    -1.25877    
 AWU WELL      3   LAYER   1   ROW     7   COL     4   RATE    -1.25877    
 AWU WELL      4   LAYER   1   ROW     7   COL     5   RATE    -1.25877    
 AWU WELL      5   LAYER   1   ROW     8   COL     4   RATE    -1.25877    
 AWU WELL      6   LAYER   1   ROW     8   COL     5   RATE    -1.25877    
 
 

 DIVERSION SEGMENTS       PERIOD    8   STEP   1
 SEGMENT      9   RATE     10.4110    
 
 

 SW IRRIGATION            PERIOD    8   STEP   1
 SEGMENT      9   ROW     6   COL     4   RATE     1.73519    
 SEGMENT      9   ROW     6   COL     5   RATE     1.73519    
 SEGMENT      9   ROW     7   COL     4   RATE     1.73519    
 SEGMENT      9   ROW     7   COL     5   RATE     1.73519    
 SEGMENT      9   ROW     8   COL     4   RATE     1.73519    
 SEGMENT      9   ROW     8   COL     5   RATE     1.73519    
 
 

 GW IRRIGATION            PERIOD    8   STEP   1
 AWU WELL      1   ROW     6   COL     4   RATE     1.25877    
 AWU WELL      2   ROW     6   COL     5   RATE     1.25877    
 AWU WELL      3   ROW     7   COL     4   RATE     1.25877    
 AWU WELL      4   ROW     7   COL     5   RATE     1.25877    
 AWU WELL      5   ROW     8   COL     4   RATE     1.25877    
 AWU WELL      6   ROW     8   COL     5   RATE     1.25877    
 
1
  VOLUMETRIC BUDGET FOR ENTIRE MODEL AT END OF TIME STEP    1, STRESS PERIOD   8
  ------------------------------------------------------------------------------

     CUMULATIVE VOLUMES      L**3       RATES FOR THIS TIME STEP      L**3/T
     ------------------                 ------------------------

           IN:                                      IN:
           ---                                      ---
    AWU WELLS            =     8248170.0000      AWU WELLS            =           7.5526
    DIVERSION SEGMENTS   =    13928204.0000      DIVERSION SEGMENTS   =          10.4112
    GW IRRIGATION        =           0.0000      GW IRRIGATION        =           0.0000
    SW IRRIGATION        =           0.0000      SW IRRIGATION        =           0.0000
    EFFICIENCY FACTOR GW =           0.0000      EFFICIENCY FACTOR GW =           0.0000
    EFFICIENCY FACTOR SW =           0.0000      EFFICIENCY FACTOR SW =           0.0000

                TOTAL IN =    22176374.0000                  TOTAL IN =          17.9638

          OUT:                                     OUT:
          ----                                     ----
    AWU WELLS            =           0.0000      AWU WELLS            =           0.0000
    DIVERSION SEGMENTS   =           0.0000      DIVERSION SEGMENTS   =           0.0000
    GW IRRIGATION        =     8248170.0000      GW IRRIGATION        =           7.5526
    SW IRRIGATION        =    13928204.0000      SW IRRIGATION        =          10.4112
    EFFICIENCY FACTOR GW =           0.0000      EFFICIENCY FACTOR GW =           0.0000
    EFFICIENCY FACTOR SW =           0.0000      EFFICIENCY FACTOR SW =           0.0000

               TOTAL OUT =    22176374.0000                 TOTAL OUT =          17.9638

                IN - OUT =           0.0000                  IN - OUT =           0.0000

     PERCENT DISCREPANCY =           0.00         PERCENT DISCREPANCY =           0.00



1
  VOLUMETRIC BUDGET FOR ENTIRE MODEL AT END OF TIME STEP    1, STRESS PERIOD   8
  ------------------------------------------------------------------------------

     CUMULATIVE VOLUMES      L**3       RATES FOR THIS TIME STEP      L**3/T
     ------------------                 ------------------------

           IN:                                      IN:
           ---                                      ---
             STORAGE     =    23336868.0000               STORAGE     =          15.3793
       CONSTANT HEAD     =           0.0000         CONSTANT HEAD     =           0.0000
     HEAD DEP BOUNDS     =     4556978.5000       HEAD DEP BOUNDS     =           0.2859
      STREAM LEAKAGE     =   196903136.0000        STREAM LEAKAGE     =          13.0087
        UZF RECHARGE     =     1853576.0000          UZF RECHARGE     =           0.1026
               GW ET     =           0.0000                 GW ET     =           0.0000
     SURFACE LEAKAGE     =           0.0000       SURFACE LEAKAGE     =           0.0000
    AWU WELLS            =           0.0000      AWU WELLS            =           0.0000

                TOTAL IN =   226650560.0000                  TOTAL IN =          28.7764

          OUT:                                     OUT:
          ----                                     ----
             STORAGE     =    42856192.0000               STORAGE     =           1.8071
       CONSTANT HEAD     =           0.0000         CONSTANT HEAD     =           0.0000
     HEAD DEP BOUNDS     =     4635828.0000       HEAD DEP BOUNDS     =           0.2923
      STREAM LEAKAGE     =   157507120.0000        STREAM LEAKAGE     =          10.6718
        UZF RECHARGE     =           0.0000          UZF RECHARGE     =           0.0000
               GW ET     =    13412613.0000                 GW ET     =           8.4534
     SURFACE LEAKAGE     =           0.0000       SURFACE LEAKAGE     =           0.0000
    AWU WELLS            =     8248170.0000      AWU WELLS            =           7.5526

               TOTAL OUT =   226659920.0000                 TOTAL OUT =          28.7772

                IN - OUT =       -9360.0000                  IN - OUT =      -7.6294E-04

     PERCENT DISCREPANCY =          -0.00         PERCENT DISCREPANCY =          -0.00






         TIME SUMMARY AT END OF TIME STEP    1 IN STRESS PERIOD    8
                    SECONDS     MINUTES      HOURS       DAYS        YEARS
                    -----------------------------------------------------------
   TIME STEP LENGTH  87600.      1460.0      24.333      1.0139     2.77588E-03
 STRESS PERIOD TIME  87600.      1460.0      24.333      1.0139     2.77588E-03
         TOTAL TIME 1.59420E+07 2.65700E+05  4428.3      184.51     0.50517    
1
 
 SOLVING FOR HEAD 
                                                   Max.-Head-Change                         Max.-Flux-Residual
  Residual-Control   Outer-Iter.   Inner-Iter.     Column Row Layer    Maximum-Head-Change  Column Row Layer    Maximum-Flux-Residual          L2-NORM 
          0                 1           2             4   13     1      -0.2750289823E-01       4   13    1        -0.1585190207E+01      0.3016432620E+01
          0                 2           2             4   13     1       0.2693637499E-02       4   13    1         0.1566859436E+00      0.2915000988E+00
          0                 3           2             4   13     1      -0.2371285613E-03       4   13    1        -0.1392096798E-01      0.2546058923E-01
          0                 4           1             4   13     1       0.1854172319E-04       4   13    1         0.1098570442E-02      0.1975877674E-02

    ------------------------------------------------
       NWT REQUIRED            4 OUTER ITERATIONS 
       AND A TOTAL OF          7 INNER ITERATIONS.
    ------------------------------------------------

 NO OUTPUT CONTROL FOR STRESS PERIOD    8   TIME STEP    2
 
 SOLVING FOR HEAD 
                                                   Max.-Head-Change                         Max.-Flux-Residual
  Residual-Control   Outer-Iter.   Inner-Iter.     Column Row Layer    Maximum-Head-Change  Column Row Layer    Maximum-Flux-Residual          L2-NORM 
          0                 1           2             4   13     1      -0.2484507519E-01       4   13    1        -0.1430855542E+01      0.2795648218E+01
          0                 2           2             4   13     1       0.2432686942E-02       4   13    1         0.1413929102E+00      0.2698769407E+00
          0                 3           2             4   13     1      -0.2141056046E-03       4   13    1        -0.1255912085E-01      0.2357310222E-01
          0                 4           1             4   13     1       0.1674212396E-04       4   13    1         0.9911217112E-03      0.1830819044E-02

    ------------------------------------------------
       NWT REQUIRED            4 OUTER ITERATIONS 
       AND A TOTAL OF          7 INNER ITERATIONS.
    ------------------------------------------------

 NO OUTPUT CONTROL FOR STRESS PERIOD    8   TIME STEP    3
 
 SOLVING FOR HEAD 
                                                   Max.-Head-Change                         Max.-Flux-Residual
  Residual-Control   Outer-Iter.   Inner-Iter.     Column Row Layer    Maximum-Head-Change  Column Row Layer    Maximum-Flux-Residual          L2-NORM 
          0                 1           2             4   13     1      -0.2246326903E-01       4   13    1        -0.1292609609E+01      0.2595975669E+01
          0                 2           2             4   13     1       0.2198888443E-02       4   13    1         0.1276969400E+00      0.2503017202E+00
          0                 3           2             4   13     1      -0.1934672525E-03       4   13    1        -0.1133885925E-01      0.2186234643E-01
          0                 4           1             4   13     1       0.1513207578E-04       4   13    1         0.8950486299E-03      0.1698938223E-02

    ------------------------------------------------
       NWT REQUIRED            4 OUTER ITERATIONS 
       AND A TOTAL OF          7 INNER ITERATIONS.
    ------------------------------------------------

 NO OUTPUT CONTROL FOR STRESS PERIOD    8   TIME STEP    4
 
 SOLVING FOR HEAD 
                                                   Max.-Head-Change                         Max.-Flux-Residual
  Residual-Control   Outer-Iter.   Inner-Iter.     Column Row Layer    Maximum-Head-Change  Column Row Layer    Maximum-Flux-Residual          L2-NORM 
          0                 1           2             4   13     1      -0.2032787380E-01       4   13    1        -0.1168721660E+01      0.2415255768E+01
          0                 2           2             4   13     1       0.1989351364E-02       4   13    1         0.1154272222E+00      0.2325699013E+00
          0                 3           2             4   13     1      -0.1749959805E-03       4   13    1        -0.1024717933E-01      0.2031566783E-01
          0                 4           1             4   13     1       0.1367107890E-04       4   13    1         0.8078862775E-03      0.1579094788E-02

    ------------------------------------------------
       NWT REQUIRED            4 OUTER ITERATIONS 
       AND A TOTAL OF          7 INNER ITERATIONS.
    ------------------------------------------------

 OUTPUT CONTROL FOR STRESS PERIOD    8   TIME STEP    5
    PRINT BUDGET
    SAVE BUDGET
 UBDSV1 SAVING "         STORAGE" ON UNIT 102 AT TIME STEP     5, STRESS PERIOD   8
 UBDSV2 SAVING "   CONSTANT HEAD" ON UNIT 102 AT TIME STEP     5, STRESS PERIOD   8
 UBDSV1 SAVING "FLOW RIGHT FACE " ON UNIT 102 AT TIME STEP     5, STRESS PERIOD   8
 UBDSV1 SAVING "FLOW FRONT FACE " ON UNIT 102 AT TIME STEP     5, STRESS PERIOD   8

  HEAD DEP BOUNDS   PERIOD    8   STEP     5
 BOUNDARY      1   LAYER   1   ROW    13   COL     1   RATE   -0.289297    
 BOUNDARY      2   LAYER   1   ROW    14   COL     9   RATE    0.285887    



 STREAM LISTING     PERIOD      8   STEP        5

 LAYER ROW COL. STREAM  RCH.  FLOW INTO     FLOW TO   FLOW OUT OF   OVRLND.     DIRECT     STREAM       STREAM     STREAM     STREAM   STREAMBED  STREAMBED
                SEG.NO.  NO.  STRM. RCH.    AQUIFER    STRM. RCH.    RUNOFF     PRECIP       ET          HEAD       DEPTH      WIDTH   CONDCTNC.   GRADIENT

   1    1    1     1     1    6.3000E+01  3.8236E-01   6.2618E+01  0.000E+00  0.000E+00  0.000E+00  1.09461E+03  1.562E+00  1.863E+01  8.382E-02  1.521E+00
   1    2    2     1     2    6.2618E+01  5.9218E-01   6.2025E+01  0.000E+00  0.000E+00  0.000E+00  1.08961E+03  1.556E+00  1.857E+01  1.300E-01  1.519E+00
   1    3    3     1     3    6.2025E+01  5.0506E-01   6.1520E+01  0.000E+00  0.000E+00  0.000E+00  1.08397E+03  1.549E+00  1.850E+01  1.110E-01  1.516E+00
   1    3    4     1     4    6.1520E+01  4.6510E-01   6.1055E+01  0.000E+00  0.000E+00  0.000E+00  1.07895E+03  1.543E+00  1.845E+01  1.024E-01  1.514E+00
   1    4    5     2     1    5.9055E+01  3.9145E-01   5.8664E+01  0.000E+00  0.000E+00  0.000E+00  1.07395E+03  2.019E+00  1.200E+01  7.800E-02  1.673E+00
   1    5    6     2     2    5.8664E+01  3.0068E-01   5.8363E+01  0.000E+00  0.000E+00  0.000E+00  1.06852E+03  2.011E+00  1.200E+01  6.000E-02  1.670E+00
   1    6    6     2     3    5.8363E+01  3.0031E-01   5.8063E+01  0.000E+00  0.000E+00  0.000E+00  1.06380E+03  2.005E+00  1.200E+01  6.000E-02  1.668E+00
   1    7    6     2     4    5.8063E+01  2.9994E-01   5.7763E+01  0.000E+00  0.000E+00  0.000E+00  1.05907E+03  1.999E+00  1.200E+01  6.000E-02  1.666E+00
   1    8    6     2     5    5.7763E+01  2.9957E-01   5.7463E+01  0.000E+00  0.000E+00  0.000E+00  1.05435E+03  1.993E+00  1.200E+01  6.000E-02  1.664E+00
   1    3    5     3     1    2.0000E+00  2.8252E-01   1.7175E+00  0.000E+00  0.000E+00  0.000E+00  1.07555E+03  1.909E+00  9.636E+00  7.227E-02  1.955E+00
   1    3    6     3     2    1.7175E+00  2.4905E-01   1.4684E+00  0.000E+00  0.000E+00  0.000E+00  1.07264E+03  1.727E+00  8.909E+00  6.682E-02  1.864E+00
   1    3    7     3     3    1.4684E+00  1.9718E-01   1.2712E+00  0.000E+00  0.000E+00  0.000E+00  1.06987E+03  1.555E+00  8.218E+00  5.547E-02  1.777E+00
   1    4    8     3     4    1.2712E+00  2.2567E-01   1.0456E+00  0.000E+00  0.000E+00  0.000E+00  1.06682E+03  1.364E+00  7.455E+00  6.709E-02  1.682E+00
   1    5    8     3     5    1.0456E+00  1.5790E-01   8.8768E-01  0.000E+00  0.000E+00  0.000E+00  1.06362E+03  1.164E+00  6.655E+00  4.991E-02  1.582E+00
   1    6    8     3     6    8.8768E-01  5.5980E-02   8.3170E-01  0.000E+00  0.000E+00  0.000E+00  1.06158E+03  1.036E+00  6.145E+00  1.844E-02  1.518E+00
   1    5   10     4     1    1.0000E+01  9.0919E-02   9.9091E+00  0.000E+00  0.000E+00  0.000E+00  1.07836E+03  6.368E-01  1.000E+01  2.500E-02  1.212E+00
   1    5    9     4     2    9.9091E+00  1.8158E-01   9.7275E+00  0.000E+00  0.000E+00  0.000E+00  1.07154E+03  6.315E-01  1.000E+01  5.000E-02  1.211E+00
   1    6    8     4     3    9.7275E+00  1.2689E-01   9.6006E+00  0.000E+00  0.000E+00  0.000E+00  1.06381E+03  6.256E-01  1.000E+01  3.500E-02  1.209E+00
   1    6    8     5     1    1.0432E+01  2.2686E-01   1.0205E+01  0.000E+00  0.000E+00  0.000E+00  1.05868E+03  6.790E-01  1.542E+01  6.166E-02  1.226E+00
   1    7    7     5     2    1.0205E+01  2.7894E-01   9.9265E+00  0.000E+00  0.000E+00  0.000E+00  1.05417E+03  6.732E-01  1.519E+01  7.594E-02  1.224E+00
   1    8    7     5     3    9.9265E+00  1.9221E-01   9.7343E+00  0.000E+00  0.000E+00  0.000E+00  1.04992E+03  6.676E-01  1.497E+01  5.241E-02  1.223E+00
   1    8    6     5     4    9.7343E+00  1.3577E-01   9.5985E+00  0.000E+00  0.000E+00  0.000E+00  1.04691E+03  6.637E-01  1.482E+01  3.706E-02  1.221E+00
   1    9    6     6     1    6.7062E+01  3.1225E-01   6.6750E+01  0.000E+00  0.000E+00  0.000E+00  1.04493E+03  2.204E+00  1.200E+01  6.000E-02  1.735E+00
   1   10    7     6     2    6.6750E+01  3.1188E-01   6.6438E+01  0.000E+00  0.000E+00  0.000E+00  1.04038E+03  2.198E+00  1.200E+01  6.000E-02  1.733E+00
   1   11    7     6     3    6.6438E+01  3.1151E-01   6.6126E+01  0.000E+00  0.000E+00  0.000E+00  1.03583E+03  2.192E+00  1.200E+01  6.000E-02  1.731E+00
   1   12    7     6     4    6.6126E+01  3.1114E-01   6.5815E+01  0.000E+00  0.000E+00  0.000E+00  1.03128E+03  2.186E+00  1.200E+01  6.000E-02  1.729E+00
   1   13    7     6     5    6.5815E+01  2.3471E-02   6.5792E+01  0.000E+00  0.000E+00  0.000E+00  1.02809E+03  2.182E+00  1.200E+01  2.400E-02  3.260E-01
   1   14    9     7     1    1.5000E+02  1.3377E+00   1.4866E+02  0.000E+00  0.000E+00  0.000E+00  1.03987E+03  2.288E+00  5.529E+01  5.593E-01  7.972E-01
   1   13    8     7     2    1.4866E+02  1.8241E+00   1.4684E+02  0.000E+00  0.000E+00  0.000E+00  1.03478E+03  2.279E+00  5.526E+01  6.148E-01  9.890E-01
   1   13    7     7     3    1.4684E+02  1.4389E+00   1.4540E+02  0.000E+00  0.000E+00  0.000E+00  1.02969E+03  2.271E+00  5.522E+01  5.585E-01  8.588E-01
   1   13    6     8     1    2.1119E+02  1.0673E+00   2.1012E+02  0.000E+00  0.000E+00  0.000E+00  1.02507E+03  3.199E+00  4.639E+01  4.727E-01  7.526E-01
   1   13    5     8     2    2.1012E+02  3.2035E-01   2.0980E+02  0.000E+00  0.000E+00  0.000E+00  1.01882E+03  3.195E+00  4.633E+01  4.722E-01  2.262E-01
   1   13    4     8     3    2.0980E+02 -1.7985E+00   2.1160E+02  0.000E+00  0.000E+00  0.000E+00  1.01257E+03  3.200E+00  4.640E+01  4.728E+00 -1.268E-01
   1   13    3     8     4    2.1160E+02 -3.0436E+00   2.1465E+02  0.000E+00  0.000E+00  0.000E+00  1.00634E+03  3.213E+00  4.659E+01  4.748E+00 -2.137E-01
   1   13    2     8     5    2.1465E+02 -2.3579E+00   2.1700E+02  0.000E+00  0.000E+00  0.000E+00  1.00010E+03  3.229E+00  4.681E+01  4.771E+00 -1.648E-01
   1   13    1     8     6    2.1700E+02 -1.4327E+00   2.1844E+02  0.000E+00  0.000E+00  0.000E+00  9.95114E+02  3.239E+00  4.697E+01  2.872E+00 -1.663E-01
   1    6    8     9     1    0.0000E+00  0.0000E+00   0.0000E+00  0.000E+00  0.000E+00  0.000E+00  1.07850E+03  0.000E+00  4.000E+00  0.000E+00  1.000E+00



 UBDSV3 SAVING "           GW ET" ON UNIT  61 AT TIME STEP     5, STRESS PERIOD   8
 UBDSV3 SAVING "    UZF RECHARGE" ON UNIT  61 AT TIME STEP     5, STRESS PERIOD   8
 UBDSV3 SAVING " SURFACE LEAKAGE" ON UNIT  61 AT TIME STEP     5, STRESS PERIOD   8
 UBDSV3 SAVING "       HORT+DUNN" ON UNIT  61 AT TIME STEP     5, STRESS PERIOD   8
 UBDSV3 SAVING "  STORAGE CHANGE" ON UNIT  61 AT TIME STEP     5, STRESS PERIOD   8


UNSATURATED ZONE PACKAGE VOLUMETRIC BUDGET FOR  TIME STEP     5 STRESS PERIOD    8
  ------------------------------------------------------------------------------



     CUMULATIVE VOLUMES      L**3       RATES FOR THIS TIME STEP      L**3/T
     ------------------                 ------------------------

           IN:                                      IN:
           ---                                      ---
        INFILTRATION =    22249597.5703          INFILTRATION =       0.0000E+00

          OUT:                                     OUT:
          ----                                     ----
              UZF ET =    10775875.7131                UZF ET =           4.4873
        UZF RECHARGE =     1888323.9018          UZF RECHARGE =           0.0973

            IN - OUT =     9585397.9554              IN - OUT =          -4.5846

          STORAGE:                                 STORAGE:
          --------                                 --------
      STORAGE CHANGE =     9592700.1555        STORAGE CHANGE =          -4.5846

 PERCENT DISCREPANCY IS DIFFERENCE BETWEEN IN-OUT MINUS CHANGE IN STORAGE
 DIVIDED BY THE AVERAGE OF IN AND OUT TIMES 100

 PERCENT DISCREPANCY =          -0.01     PERCENT DISCREPANCY =          -0.00






 

 AWU WELLS                PERIOD    8   STEP   5
 AWU WELL      1   LAYER   1   ROW     6   COL     4   RATE     0.00000    
 AWU WELL      2   LAYER   1   ROW     6   COL     5   RATE     0.00000    
 AWU WELL      3   LAYER   1   ROW     7   COL     4   RATE     0.00000    
 AWU WELL      4   LAYER   1   ROW     7   COL     5   RATE     0.00000    
 AWU WELL      5   LAYER   1   ROW     8   COL     4   RATE     0.00000    
 AWU WELL      6   LAYER   1   ROW     8   COL     5   RATE     0.00000    
 
 

 DIVERSION SEGMENTS       PERIOD    8   STEP   5
 SEGMENT      9   RATE     0.00000    
 
 

 SW IRRIGATION            PERIOD    8   STEP   5
 SEGMENT      9   ROW     6   COL     4   RATE     0.00000    
 SEGMENT      9   ROW     6   COL     5   RATE     0.00000    
 SEGMENT      9   ROW     7   COL     4   RATE     0.00000    
 SEGMENT      9   ROW     7   COL     5   RATE     0.00000    
 SEGMENT      9   ROW     8   COL     4   RATE     0.00000    
 SEGMENT      9   ROW     8   COL     5   RATE     0.00000    
 
 

 GW IRRIGATION            PERIOD    8   STEP   5
 AWU WELL      1   ROW     6   COL     4   RATE     0.00000    
 AWU WELL      2   ROW     6   COL     5   RATE     0.00000    
 AWU WELL      3   ROW     7   COL     4   RATE     0.00000    
 AWU WELL      4   ROW     7   COL     5   RATE     0.00000    
 AWU WELL      5   ROW     8   COL     4   RATE     0.00000    
 AWU WELL      6   ROW     8   COL     5   RATE     0.00000    
 
1
  VOLUMETRIC BUDGET FOR ENTIRE MODEL AT END OF TIME STEP    5, STRESS PERIOD   8
  ------------------------------------------------------------------------------

     CUMULATIVE VOLUMES      L**3       RATES FOR THIS TIME STEP      L**3/T
     ------------------                 ------------------------

           IN:                                      IN:
           ---                                      ---
    AWU WELLS            =     8248170.0000      AWU WELLS            =           0.0000
    DIVERSION SEGMENTS   =    13928204.0000      DIVERSION SEGMENTS   =           0.0000
    GW IRRIGATION        =           0.0000      GW IRRIGATION        =           0.0000
    SW IRRIGATION        =           0.0000      SW IRRIGATION        =           0.0000
    EFFICIENCY FACTOR GW =           0.0000      EFFICIENCY FACTOR GW =           0.0000
    EFFICIENCY FACTOR SW =           0.0000      EFFICIENCY FACTOR SW =           0.0000

                TOTAL IN =    22176374.0000                  TOTAL IN =           0.0000

          OUT:                                     OUT:
          ----                                     ----
    AWU WELLS            =           0.0000      AWU WELLS            =           0.0000
    DIVERSION SEGMENTS   =           0.0000      DIVERSION SEGMENTS   =           0.0000
    GW IRRIGATION        =     8248170.0000      GW IRRIGATION        =           0.0000
    SW IRRIGATION        =    13928204.0000      SW IRRIGATION        =           0.0000
    EFFICIENCY FACTOR GW =           0.0000      EFFICIENCY FACTOR GW =           0.0000
    EFFICIENCY FACTOR SW =           0.0000      EFFICIENCY FACTOR SW =           0.0000

               TOTAL OUT =    22176374.0000                 TOTAL OUT =           0.0000

                IN - OUT =           0.0000                  IN - OUT =           0.0000

     PERCENT DISCREPANCY =           0.00         PERCENT DISCREPANCY =           0.00



1
  VOLUMETRIC BUDGET FOR ENTIRE MODEL AT END OF TIME STEP    5, STRESS PERIOD   8
  ------------------------------------------------------------------------------

     CUMULATIVE VOLUMES      L**3       RATES FOR THIS TIME STEP      L**3/T
     ------------------                 ------------------------

           IN:                                      IN:
           ---                                      ---
             STORAGE     =    25588680.0000               STORAGE     =           5.8804
       CONSTANT HEAD     =           0.0000         CONSTANT HEAD     =           0.0000
     HEAD DEP BOUNDS     =     4657154.0000       HEAD DEP BOUNDS     =           0.2859
      STREAM LEAKAGE     =   201520672.0000        STREAM LEAKAGE     =          13.1967
        UZF RECHARGE     =     1888324.2500          UZF RECHARGE     =       9.7308E-02
               GW ET     =           0.0000                 GW ET     =           0.0000
     SURFACE LEAKAGE     =           0.0000       SURFACE LEAKAGE     =           0.0000
    AWU WELLS            =           0.0000      AWU WELLS            =           0.0000

                TOTAL IN =   233654832.0000                  TOTAL IN =          19.4604

          OUT:                                     OUT:
          ----                                     ----
             STORAGE     =    43655804.0000               STORAGE     =           2.2518
       CONSTANT HEAD     =           0.0000         CONSTANT HEAD     =           0.0000
     HEAD DEP BOUNDS     =     4737575.0000       HEAD DEP BOUNDS     =           0.2893
      STREAM LEAKAGE     =   160685760.0000        STREAM LEAKAGE     =           8.6326
        UZF RECHARGE     =           0.0000          UZF RECHARGE     =           0.0000
               GW ET     =    16336968.0000                 GW ET     =           8.2870
     SURFACE LEAKAGE     =           0.0000       SURFACE LEAKAGE     =           0.0000
    AWU WELLS            =     8248170.0000      AWU WELLS            =           0.0000

               TOTAL OUT =   233664272.0000                 TOTAL OUT =          19.4606

                IN - OUT =       -9440.0000                  IN - OUT =      -2.5940E-04

     PERCENT DISCREPANCY =          -0.00         PERCENT DISCREPANCY =          -0.00






         TIME SUMMARY AT END OF TIME STEP    5 IN STRESS PERIOD    8
                    SECONDS     MINUTES      HOURS       DAYS        YEARS
                    -----------------------------------------------------------
   TIME STEP LENGTH  87600.      1460.0      24.333      1.0139     2.77588E-03
 STRESS PERIOD TIME 4.38000E+05  7300.0      121.67      5.0694     1.38794E-02
         TOTAL TIME 1.62924E+07 2.71540E+05  4525.7      188.57     0.51627    
1
 
 SOLVING FOR HEAD 
                                                   Max.-Head-Change                         Max.-Flux-Residual
  Residual-Control   Outer-Iter.   Inner-Iter.     Column Row Layer    Maximum-Head-Change  Column Row Layer    Maximum-Flux-Residual          L2-NORM 
          0                 1           2             1   13     1      -0.1884868359E-01       4   13    1        -0.1057645293E+01      0.2251559619E+01
          0                 2           2             1   13     1       0.1802435733E-02       4   13    1         0.1044267862E+00      0.2164870035E+00
          0                 3           2             4   13     1      -0.1584166888E-03       4   13    1        -0.9267781301E-02      0.1891160457E-01
          0                 4           1             4   13     1       0.1237721155E-04       4   13    1         0.7307426240E-03      0.1470391511E-02

    ------------------------------------------------
       NWT REQUIRED            4 OUTER ITERATIONS 
       AND A TOTAL OF          7 INNER ITERATIONS.
    ------------------------------------------------

 NO OUTPUT CONTROL FOR STRESS PERIOD    8   TIME STEP    6
 
 SOLVING FOR HEAD 
                                                   Max.-Head-Change                         Max.-Flux-Residual
  Residual-Control   Outer-Iter.   Inner-Iter.     Column Row Layer    Maximum-Head-Change  Column Row Layer    Maximum-Flux-Residual          L2-NORM 
          0                 1           2             1   13     1      -0.1781981142E-01       1   13    1        -0.9816339959E+00      0.2103172143E+01
          0                 2           2             1   13     1       0.1705526224E-02       1   13    1         0.9482368553E-01      0.2018756508E+00
          0                 3           2             1   13     1      -0.1463833967E-03       4   13    1        -0.8389059150E-02      0.1763467716E-01
          0                 4           1             5   13     1       0.1129998376E-04       4   13    1         0.6608584554E-03      0.1371482795E-02

    ------------------------------------------------
       NWT REQUIRED            4 OUTER ITERATIONS 
       AND A TOTAL OF          7 INNER ITERATIONS.
    ------------------------------------------------

 NO OUTPUT CONTROL FOR STRESS PERIOD    8   TIME STEP    7
 
 SOLVING FOR HEAD 
                                                   Max.-Head-Change                         Max.-Flux-Residual
  Residual-Control   Outer-Iter.   Inner-Iter.     Column Row Layer    Maximum-Head-Change  Column Row Layer    Maximum-Flux-Residual          L2-NORM 
          0                 1           2             4    7     1      -0.2257105211E-01       4    8    1        -0.1183329663E+01      0.3750770798E+01
          0                 2           2             4    7     1       0.2236582986E-02       4    8    1         0.1183314939E+00      0.3693679727E+00
          0                 3           2             4    7     1      -0.1994645406E-03       4    8    1        -0.1064985023E-01      0.3285473112E-01
          0                 4           1             4    7     1       0.1583214165E-04       4    8    1         0.8530530927E-03      0.2601808979E-02

    ------------------------------------------------
       NWT REQUIRED            4 OUTER ITERATIONS 
       AND A TOTAL OF          7 INNER ITERATIONS.
    ------------------------------------------------

 NO OUTPUT CONTROL FOR STRESS PERIOD    8   TIME STEP    8
 
 SOLVING FOR HEAD 
                                                   Max.-Head-Change                         Max.-Flux-Residual
  Residual-Control   Outer-Iter.   Inner-Iter.     Column Row Layer    Maximum-Head-Change  Column Row Layer    Maximum-Flux-Residual          L2-NORM 
          0                 1           2             4   13     1      -0.2132099062E-01       4   13    1        -0.1223468061E+01      0.2524825155E+01
          0                 2           2             4   13     1       0.2419047074E-02       4   13    1         0.1402725624E+00      0.2744336022E+00
          0                 3           2             4   13     1      -0.2129533732E-03       4   13    1        -0.1246243186E-01      0.2395623502E-01
          0                 4           1             4   13     1       0.1666013197E-04       4   13    1         0.9839782469E-03      0.1858469306E-02

    ------------------------------------------------
       NWT REQUIRED            4 OUTER ITERATIONS 
       AND A TOTAL OF          7 INNER ITERATIONS.
    ------------------------------------------------

 NO OUTPUT CONTROL FOR STRESS PERIOD    8   TIME STEP    9
 
 SOLVING FOR HEAD 
                                                   Max.-Head-Change                         Max.-Flux-Residual
  Residual-Control   Outer-Iter.   Inner-Iter.     Column Row Layer    Maximum-Head-Change  Column Row Layer    Maximum-Flux-Residual          L2-NORM 
          0                 1           2             4   13     1      -0.1938210569E-01       4   13    1        -0.1111233600E+01      0.2358628299E+01
          0                 2           2             4   13     1       0.2282331600E-02       4   13    1         0.1322858368E+00      0.2628614452E+00
          0                 3           2             4   13     1      -0.2008862267E-03       4   13    1        -0.1175093058E-01      0.2294378804E-01
          0                 4           1             4   13     1       0.1571547506E-04       4   13    1         0.9277589579E-03      0.1780645611E-02

    ------------------------------------------------
       NWT REQUIRED            4 OUTER ITERATIONS 
       AND A TOTAL OF          7 INNER ITERATIONS.
    ------------------------------------------------

 OUTPUT CONTROL FOR STRESS PERIOD    8   TIME STEP   10
    PRINT BUDGET
    SAVE BUDGET
 UBDSV1 SAVING "         STORAGE" ON UNIT 102 AT TIME STEP    10, STRESS PERIOD   8
 UBDSV2 SAVING "   CONSTANT HEAD" ON UNIT 102 AT TIME STEP    10, STRESS PERIOD   8
 UBDSV1 SAVING "FLOW RIGHT FACE " ON UNIT 102 AT TIME STEP    10, STRESS PERIOD   8
 UBDSV1 SAVING "FLOW FRONT FACE " ON UNIT 102 AT TIME STEP    10, STRESS PERIOD   8

  HEAD DEP BOUNDS   PERIOD    8   STEP    10
 BOUNDARY      1   LAYER   1   ROW    13   COL     1   RATE   -0.285981    
 BOUNDARY      2   LAYER   1   ROW    14   COL     9   RATE    0.285886    



 STREAM LISTING     PERIOD      8   STEP       10

 LAYER ROW COL. STREAM  RCH.  FLOW INTO     FLOW TO   FLOW OUT OF   OVRLND.     DIRECT     STREAM       STREAM     STREAM     STREAM   STREAMBED  STREAMBED
                SEG.NO.  NO.  STRM. RCH.    AQUIFER    STRM. RCH.    RUNOFF     PRECIP       ET          HEAD       DEPTH      WIDTH   CONDCTNC.   GRADIENT

   1    1    1     1     1    6.3000E+01  3.8236E-01   6.2618E+01  0.000E+00  0.000E+00  0.000E+00  1.09461E+03  1.562E+00  1.863E+01  8.382E-02  1.521E+00
   1    2    2     1     2    6.2618E+01  5.9218E-01   6.2025E+01  0.000E+00  0.000E+00  0.000E+00  1.08961E+03  1.556E+00  1.857E+01  1.300E-01  1.519E+00
   1    3    3     1     3    6.2025E+01  5.0506E-01   6.1520E+01  0.000E+00  0.000E+00  0.000E+00  1.08397E+03  1.549E+00  1.850E+01  1.110E-01  1.516E+00
   1    3    4     1     4    6.1520E+01  4.6510E-01   6.1055E+01  0.000E+00  0.000E+00  0.000E+00  1.07895E+03  1.543E+00  1.845E+01  1.024E-01  1.514E+00
   1    4    5     2     1    5.9055E+01  3.9145E-01   5.8664E+01  0.000E+00  0.000E+00  0.000E+00  1.07395E+03  2.019E+00  1.200E+01  7.800E-02  1.673E+00
   1    5    6     2     2    5.8664E+01  3.0068E-01   5.8363E+01  0.000E+00  0.000E+00  0.000E+00  1.06852E+03  2.011E+00  1.200E+01  6.000E-02  1.670E+00
   1    6    6     2     3    5.8363E+01  3.0031E-01   5.8063E+01  0.000E+00  0.000E+00  0.000E+00  1.06380E+03  2.005E+00  1.200E+01  6.000E-02  1.668E+00
   1    7    6     2     4    5.8063E+01  2.9994E-01   5.7763E+01  0.000E+00  0.000E+00  0.000E+00  1.05907E+03  1.999E+00  1.200E+01  6.000E-02  1.666E+00
   1    8    6     2     5    5.7763E+01  2.9957E-01   5.7463E+01  0.000E+00  0.000E+00  0.000E+00  1.05435E+03  1.993E+00  1.200E+01  6.000E-02  1.664E+00
   1    3    5     3     1    2.0000E+00  2.8252E-01   1.7175E+00  0.000E+00  0.000E+00  0.000E+00  1.07555E+03  1.909E+00  9.636E+00  7.227E-02  1.955E+00
   1    3    6     3     2    1.7175E+00  2.4905E-01   1.4684E+00  0.000E+00  0.000E+00  0.000E+00  1.07264E+03  1.727E+00  8.909E+00  6.682E-02  1.864E+00
   1    3    7     3     3    1.4684E+00  1.9718E-01   1.2712E+00  0.000E+00  0.000E+00  0.000E+00  1.06987E+03  1.555E+00  8.218E+00  5.547E-02  1.777E+00
   1    4    8     3     4    1.2712E+00  2.2567E-01   1.0456E+00  0.000E+00  0.000E+00  0.000E+00  1.06682E+03  1.364E+00  7.455E+00  6.709E-02  1.682E+00
   1    5    8     3     5    1.0456E+00  1.5790E-01   8.8768E-01  0.000E+00  0.000E+00  0.000E+00  1.06362E+03  1.164E+00  6.655E+00  4.991E-02  1.582E+00
   1    6    8     3     6    8.8768E-01  5.5980E-02   8.3170E-01  0.000E+00  0.000E+00  0.000E+00  1.06158E+03  1.036E+00  6.145E+00  1.844E-02  1.518E+00
   1    5   10     4     1    1.0000E+01  9.0919E-02   9.9091E+00  0.000E+00  0.000E+00  0.000E+00  1.07836E+03  6.368E-01  1.000E+01  2.500E-02  1.212E+00
   1    5    9     4     2    9.9091E+00  1.8158E-01   9.7275E+00  0.000E+00  0.000E+00  0.000E+00  1.07154E+03  6.315E-01  1.000E+01  5.000E-02  1.211E+00
   1    6    8     4     3    9.7275E+00  1.2689E-01   9.6006E+00  0.000E+00  0.000E+00  0.000E+00  1.06381E+03  6.256E-01  1.000E+01  3.500E-02  1.209E+00
   1    6    8     5     1    1.0432E+01  2.2686E-01   1.0205E+01  0.000E+00  0.000E+00  0.000E+00  1.05868E+03  6.790E-01  1.542E+01  6.166E-02  1.226E+00
   1    7    7     5     2    1.0205E+01  2.7894E-01   9.9265E+00  0.000E+00  0.000E+00  0.000E+00  1.05417E+03  6.732E-01  1.519E+01  7.594E-02  1.224E+00
   1    8    7     5     3    9.9265E+00  1.9221E-01   9.7343E+00  0.000E+00  0.000E+00  0.000E+00  1.04992E+03  6.676E-01  1.497E+01  5.241E-02  1.223E+00
   1    8    6     5     4    9.7343E+00  1.3577E-01   9.5985E+00  0.000E+00  0.000E+00  0.000E+00  1.04691E+03  6.637E-01  1.482E+01  3.706E-02  1.221E+00
   1    9    6     6     1    4.8026E+01  2.8820E-01   4.7738E+01  0.000E+00  0.000E+00  0.000E+00  1.04453E+03  1.803E+00  1.200E+01  6.000E-02  1.601E+00
   1   10    7     6     2    4.7738E+01  2.8781E-01   4.7450E+01  0.000E+00  0.000E+00  0.000E+00  1.03998E+03  1.797E+00  1.200E+01  6.000E-02  1.599E+00
   1   11    7     6     3    4.7450E+01  2.8742E-01   4.7163E+01  0.000E+00  0.000E+00  0.000E+00  1.03543E+03  1.790E+00  1.200E+01  6.000E-02  1.597E+00
   1   12    7     6     4    4.7163E+01  2.8703E-01   4.6876E+01  0.000E+00  0.000E+00  0.000E+00  1.03087E+03  1.784E+00  1.200E+01  6.000E-02  1.595E+00
   1   13    7     6     5    4.6876E+01  1.4129E-02   4.6862E+01  0.000E+00  0.000E+00  0.000E+00  1.02769E+03  1.780E+00  1.200E+01  2.400E-02  1.962E-01
   1   14    9     7     1    1.5000E+02  1.3377E+00   1.4866E+02  0.000E+00  0.000E+00  0.000E+00  1.03987E+03  2.288E+00  5.529E+01  5.593E-01  7.972E-01
   1   13    8     7     2    1.4866E+02  1.8244E+00   1.4684E+02  0.000E+00  0.000E+00  0.000E+00  1.03478E+03  2.279E+00  5.526E+01  6.148E-01  9.892E-01
   1   13    7     7     3    1.4684E+02  1.4460E+00   1.4539E+02  0.000E+00  0.000E+00  0.000E+00  1.02969E+03  2.271E+00  5.522E+01  5.585E-01  8.631E-01
   1   13    6     8     1    1.9225E+02  9.9681E-01   1.9126E+02  0.000E+00  0.000E+00  0.000E+00  1.02496E+03  3.089E+00  4.478E+01  4.564E-01  7.281E-01
   1   13    5     8     2    1.9126E+02  2.9245E-01   1.9096E+02  0.000E+00  0.000E+00  0.000E+00  1.01871E+03  3.085E+00  4.473E+01  4.558E-01  2.139E-01
   1   13    4     8     3    1.9096E+02 -1.8440E+00   1.9281E+02  0.000E+00  0.000E+00  0.000E+00  1.01246E+03  3.089E+00  4.480E+01  4.565E+00 -1.347E-01
   1   13    3     8     4    1.9281E+02 -3.0551E+00   1.9586E+02  0.000E+00  0.000E+00  0.000E+00  1.00623E+03  3.104E+00  4.501E+01  4.587E+00 -2.220E-01
   1   13    2     8     5    1.9586E+02 -2.4631E+00   1.9833E+02  0.000E+00  0.000E+00  0.000E+00  9.99996E+02  3.121E+00  4.525E+01  4.611E+00 -1.781E-01
   1   13    1     8     6    1.9833E+02 -1.4404E+00   1.9977E+02  0.000E+00  0.000E+00  0.000E+00  9.95007E+02  3.132E+00  4.542E+01  2.777E+00 -1.729E-01
   1    6    8     9     1    1.9036E+01  0.0000E+00   1.9036E+01  0.000E+00  0.000E+00  0.000E+00  1.07929E+03  7.930E-01  4.000E+00  0.000E+00  1.264E+00



 UBDSV3 SAVING "           GW ET" ON UNIT  61 AT TIME STEP    10, STRESS PERIOD   8
 UBDSV3 SAVING "    UZF RECHARGE" ON UNIT  61 AT TIME STEP    10, STRESS PERIOD   8
 UBDSV3 SAVING " SURFACE LEAKAGE" ON UNIT  61 AT TIME STEP    10, STRESS PERIOD   8
 UBDSV3 SAVING "       HORT+DUNN" ON UNIT  61 AT TIME STEP    10, STRESS PERIOD   8
 UBDSV3 SAVING "  STORAGE CHANGE" ON UNIT  61 AT TIME STEP    10, STRESS PERIOD   8


UNSATURATED ZONE PACKAGE VOLUMETRIC BUDGET FOR  TIME STEP    10 STRESS PERIOD    8
  ------------------------------------------------------------------------------



     CUMULATIVE VOLUMES      L**3       RATES FOR THIS TIME STEP      L**3/T
     ------------------                 ------------------------

           IN:                                      IN:
           ---                                      ---
        INFILTRATION =    27358855.9453          INFILTRATION =          19.0362

          OUT:                                     OUT:
          ----                                     ----
              UZF ET =    12773840.2053                UZF ET =           4.6398
        UZF RECHARGE =     1929335.6089          UZF RECHARGE =           0.0905

            IN - OUT =    12655680.1311              IN - OUT =          14.3059

          STORAGE:                                 STORAGE:
          --------                                 --------
      STORAGE CHANGE =    12662987.2614        STORAGE CHANGE =          14.3059

 PERCENT DISCREPANCY IS DIFFERENCE BETWEEN IN-OUT MINUS CHANGE IN STORAGE
 DIVIDED BY THE AVERAGE OF IN AND OUT TIMES 100

 PERCENT DISCREPANCY =          -0.01     PERCENT DISCREPANCY =          -0.00






 

 AWU WELLS                PERIOD    8   STEP  10
 AWU WELL      1   LAYER   1   ROW     6   COL     4   RATE     0.00000    
 AWU WELL      2   LAYER   1   ROW     6   COL     5   RATE     0.00000    
 AWU WELL      3   LAYER   1   ROW     7   COL     4   RATE     0.00000    
 AWU WELL      4   LAYER   1   ROW     7   COL     5   RATE     0.00000    
 AWU WELL      5   LAYER   1   ROW     8   COL     4   RATE     0.00000    
 AWU WELL      6   LAYER   1   ROW     8   COL     5   RATE     0.00000    
 
 

 DIVERSION SEGMENTS       PERIOD    8   STEP  10
 SEGMENT      9   RATE     19.0358    
 
 

 SW IRRIGATION            PERIOD    8   STEP  10
 SEGMENT      9   ROW     6   COL     4   RATE     3.17270    
 SEGMENT      9   ROW     6   COL     5   RATE     3.17270    
 SEGMENT      9   ROW     7   COL     4   RATE     3.17270    
 SEGMENT      9   ROW     7   COL     5   RATE     3.17270    
 SEGMENT      9   ROW     8   COL     4   RATE     3.17270    
 SEGMENT      9   ROW     8   COL     5   RATE     3.17270    
 
 

 GW IRRIGATION            PERIOD    8   STEP  10
 AWU WELL      1   ROW     6   COL     4   RATE     0.00000    
 AWU WELL      2   ROW     6   COL     5   RATE     0.00000    
 AWU WELL      3   ROW     7   COL     4   RATE     0.00000    
 AWU WELL      4   ROW     7   COL     5   RATE     0.00000    
 AWU WELL      5   ROW     8   COL     4   RATE     0.00000    
 AWU WELL      6   ROW     8   COL     5   RATE     0.00000    
 
1
  VOLUMETRIC BUDGET FOR ENTIRE MODEL AT END OF TIME STEP   10, STRESS PERIOD   8
  ------------------------------------------------------------------------------

     CUMULATIVE VOLUMES      L**3       RATES FOR THIS TIME STEP      L**3/T
     ------------------                 ------------------------

           IN:                                      IN:
           ---                                      ---
    AWU WELLS            =     8906990.0000      AWU WELLS            =           0.0000
    DIVERSION SEGMENTS   =    18378642.0000      DIVERSION SEGMENTS   =          19.0362
    GW IRRIGATION        =           0.0000      GW IRRIGATION        =           0.0000
    SW IRRIGATION        =           0.0000      SW IRRIGATION        =           0.0000
    EFFICIENCY FACTOR GW =           0.0000      EFFICIENCY FACTOR GW =           0.0000
    EFFICIENCY FACTOR SW =           0.0000      EFFICIENCY FACTOR SW =           0.0000

                TOTAL IN =    27285632.0000                  TOTAL IN =          19.0362

          OUT:                                     OUT:
          ----                                     ----
    AWU WELLS            =           0.0000      AWU WELLS            =           0.0000
    DIVERSION SEGMENTS   =           0.0000      DIVERSION SEGMENTS   =           0.0000
    GW IRRIGATION        =     8906990.0000      GW IRRIGATION        =           0.0000
    SW IRRIGATION        =    18378642.0000      SW IRRIGATION        =          19.0362
    EFFICIENCY FACTOR GW =           0.0000      EFFICIENCY FACTOR GW =           0.0000
    EFFICIENCY FACTOR SW =           0.0000      EFFICIENCY FACTOR SW =           0.0000

               TOTAL OUT =    27285632.0000                 TOTAL OUT =          19.0362

                IN - OUT =           0.0000                  IN - OUT =           0.0000

     PERCENT DISCREPANCY =           0.00         PERCENT DISCREPANCY =           0.00



1
  VOLUMETRIC BUDGET FOR ENTIRE MODEL AT END OF TIME STEP   10, STRESS PERIOD   8
  ------------------------------------------------------------------------------

     CUMULATIVE VOLUMES      L**3       RATES FOR THIS TIME STEP      L**3/T
     ------------------                 ------------------------

           IN:                                      IN:
           ---                                      ---
             STORAGE     =    28760220.0000               STORAGE     =           5.9961
       CONSTANT HEAD     =           0.0000         CONSTANT HEAD     =           0.0000
     HEAD DEP BOUNDS     =     4782371.5000       HEAD DEP BOUNDS     =           0.2859
      STREAM LEAKAGE     =   207256768.0000        STREAM LEAKAGE     =          13.0000
        UZF RECHARGE     =     1929336.0000          UZF RECHARGE     =       9.0524E-02
               GW ET     =           0.0000                 GW ET     =           0.0000
     SURFACE LEAKAGE     =           0.0000       SURFACE LEAKAGE     =           0.0000
    AWU WELLS            =           0.0000      AWU WELLS            =           0.0000

                TOTAL IN =   242728704.0000                  TOTAL IN =          19.3725

          OUT:                                     OUT:
          ----                                     ----
             STORAGE     =    44573276.0000               STORAGE     =           2.1774
       CONSTANT HEAD     =           0.0000         CONSTANT HEAD     =           0.0000
     HEAD DEP BOUNDS     =     4863424.0000       HEAD DEP BOUNDS     =           0.2860
      STREAM LEAKAGE     =   164474480.0000        STREAM LEAKAGE     =           8.8026
        UZF RECHARGE     =           0.0000          UZF RECHARGE     =           0.0000
               GW ET     =    19920094.0000                 GW ET     =           8.1068
     SURFACE LEAKAGE     =           0.0000       SURFACE LEAKAGE     =           0.0000
    AWU WELLS            =     8906990.0000      AWU WELLS            =           0.0000

               TOTAL OUT =   242738272.0000                 TOTAL OUT =          19.3728

                IN - OUT =       -9568.0000                  IN - OUT =      -3.0518E-04

     PERCENT DISCREPANCY =          -0.00         PERCENT DISCREPANCY =          -0.00






         TIME SUMMARY AT END OF TIME STEP   10 IN STRESS PERIOD    8
                    SECONDS     MINUTES      HOURS       DAYS        YEARS
                    -----------------------------------------------------------
   TIME STEP LENGTH  87600.      1460.0      24.333      1.0139     2.77588E-03
 STRESS PERIOD TIME 8.76000E+05  14600.      243.33      10.139     2.77588E-02
         TOTAL TIME 1.67304E+07 2.78840E+05  4647.3      193.64     0.53015    
1
 
 SOLVING FOR HEAD 
                                                   Max.-Head-Change                         Max.-Flux-Residual
  Residual-Control   Outer-Iter.   Inner-Iter.     Column Row Layer    Maximum-Head-Change  Column Row Layer    Maximum-Flux-Residual          L2-NORM 
          0                 1           2             1   13     1      -0.1832979101E-01       4   13    1        -0.1010693754E+01      0.2207960418E+01
          0                 2           2             4   13     1       0.2158519042E-02       4   13    1         0.1250574841E+00      0.2520836297E+00
          0                 3           2             4   13     1      -0.1899682825E-03       4   13    1        -0.1110759967E-01      0.2200210821E-01
          0                 4           1             4   13     1       0.1485368708E-04       4   13    1         0.8765020048E-03      0.1708015414E-02

    ------------------------------------------------
       NWT REQUIRED            4 OUTER ITERATIONS 
       AND A TOTAL OF          7 INNER ITERATIONS.
    ------------------------------------------------

 NO OUTPUT CONTROL FOR STRESS PERIOD    8   TIME STEP   11
 
 SOLVING FOR HEAD 
                                                   Max.-Head-Change                         Max.-Flux-Residual
  Residual-Control   Outer-Iter.   Inner-Iter.     Column Row Layer    Maximum-Head-Change  Column Row Layer    Maximum-Flux-Residual          L2-NORM 
          0                 1           2             1   13     1      -0.1738196412E-01       1   13    1        -0.9552129235E+00      0.2071240741E+01
          0                 2           2             4   13     1       0.2046269612E-02       4   13    1         0.1185084640E+00      0.2420299680E+00
          0                 3           2             4   13     1      -0.1800241529E-03       4   13    1        -0.1052200770E-01      0.2112043700E-01
          0                 4           1             4   13     1       0.1406135452E-04       4   13    1         0.8294016397E-03      0.1638805771E-02

    ------------------------------------------------
       NWT REQUIRED            4 OUTER ITERATIONS 
       AND A TOTAL OF          7 INNER ITERATIONS.
    ------------------------------------------------

 NO OUTPUT CONTROL FOR STRESS PERIOD    8   TIME STEP   12
 
 SOLVING FOR HEAD 
                                                   Max.-Head-Change                         Max.-Flux-Residual
  Residual-Control   Outer-Iter.   Inner-Iter.     Column Row Layer    Maximum-Head-Change  Column Row Layer    Maximum-Flux-Residual          L2-NORM 
          0                 1           2             1   13     1      -0.1648205236E-01       1   13    1        -0.9058460398E+00      0.1947042750E+01
          0                 2           2             4   13     1       0.1944436846E-02       4   13    1         0.1125711913E+00      0.2326429330E+00
          0                 3           2             4   13     1      -0.1710690099E-03       4   13    1        -0.9995047481E-02      0.2030088551E-01
          0                 4           1             4   13     1       0.1335451053E-04       4   13    1         0.7874226867E-03      0.1574738776E-02

    ------------------------------------------------
       NWT REQUIRED            4 OUTER ITERATIONS 
       AND A TOTAL OF          7 INNER ITERATIONS.
    ------------------------------------------------

 NO OUTPUT CONTROL FOR STRESS PERIOD    8   TIME STEP   13
 
 SOLVING FOR HEAD 
                                                   Max.-Head-Change                         Max.-Flux-Residual
  Residual-Control   Outer-Iter.   Inner-Iter.     Column Row Layer    Maximum-Head-Change  Column Row Layer    Maximum-Flux-Residual          L2-NORM 
          0                 1           2             1   13     1      -0.1562780422E-01       1   13    1        -0.8589758786E+00      0.1834106759E+01
          0                 2           2             4   13     1       0.1971302791E-02       4   13    1         0.1141597078E+00      0.2349395624E+00
          0                 3           2             4   13     1      -0.1734099666E-03       4   13    1        -0.1013479927E-01      0.2049100248E-01
          0                 4           1             4   13     1       0.1355523742E-04       4   13    1         0.7995176684E-03      0.1588433245E-02

    ------------------------------------------------
       NWT REQUIRED            4 OUTER ITERATIONS 
       AND A TOTAL OF          7 INNER ITERATIONS.
    ------------------------------------------------

 NO OUTPUT CONTROL FOR STRESS PERIOD    8   TIME STEP   14
 
 SOLVING FOR HEAD 
                                                   Max.-Head-Change                         Max.-Flux-Residual
  Residual-Control   Outer-Iter.   Inner-Iter.     Column Row Layer    Maximum-Head-Change  Column Row Layer    Maximum-Flux-Residual          L2-NORM 
          0                 1           2             4    7     1      -0.3927205770E-01       4    7    1        -0.2053558828E+01      0.5153535939E+01
          0                 2           2             4    7     1       0.3882538057E-02       4    8    1         0.2051980407E+00      0.5133386383E+00
          0                 3           2             4    7     1      -0.3462548874E-03       4    8    1        -0.1846786920E-01      0.4613881749E-01
          0                 4           1             4    7     1       0.2748335159E-04       4    8    1         0.1479276351E-02      0.3692289935E-02

    ------------------------------------------------
       NWT REQUIRED            4 OUTER ITERATIONS 
       AND A TOTAL OF          7 INNER ITERATIONS.
    ------------------------------------------------

 OUTPUT CONTROL FOR STRESS PERIOD    8   TIME STEP   15
    PRINT BUDGET
    SAVE BUDGET
 UBDSV1 SAVING "         STORAGE" ON UNIT 102 AT TIME STEP    15, STRESS PERIOD   8
 UBDSV2 SAVING "   CONSTANT HEAD" ON UNIT 102 AT TIME STEP    15, STRESS PERIOD   8
 UBDSV1 SAVING "FLOW RIGHT FACE " ON UNIT 102 AT TIME STEP    15, STRESS PERIOD   8
 UBDSV1 SAVING "FLOW FRONT FACE " ON UNIT 102 AT TIME STEP    15, STRESS PERIOD   8

  HEAD DEP BOUNDS   PERIOD    8   STEP    15
 BOUNDARY      1   LAYER   1   ROW    13   COL     1   RATE   -0.283287    
 BOUNDARY      2   LAYER   1   ROW    14   COL     9   RATE    0.285885    



 STREAM LISTING     PERIOD      8   STEP       15

 LAYER ROW COL. STREAM  RCH.  FLOW INTO     FLOW TO   FLOW OUT OF   OVRLND.     DIRECT     STREAM       STREAM     STREAM     STREAM   STREAMBED  STREAMBED
                SEG.NO.  NO.  STRM. RCH.    AQUIFER    STRM. RCH.    RUNOFF     PRECIP       ET          HEAD       DEPTH      WIDTH   CONDCTNC.   GRADIENT

   1    1    1     1     1    6.3000E+01  3.8236E-01   6.2618E+01  0.000E+00  0.000E+00  0.000E+00  1.09461E+03  1.562E+00  1.863E+01  8.382E-02  1.521E+00
   1    2    2     1     2    6.2618E+01  5.9218E-01   6.2025E+01  0.000E+00  0.000E+00  0.000E+00  1.08961E+03  1.556E+00  1.857E+01  1.300E-01  1.519E+00
   1    3    3     1     3    6.2025E+01  5.0506E-01   6.1520E+01  0.000E+00  0.000E+00  0.000E+00  1.08397E+03  1.549E+00  1.850E+01  1.110E-01  1.516E+00
   1    3    4     1     4    6.1520E+01  4.6510E-01   6.1055E+01  0.000E+00  0.000E+00  0.000E+00  1.07895E+03  1.543E+00  1.845E+01  1.024E-01  1.514E+00
   1    4    5     2     1    5.9055E+01  3.9145E-01   5.8664E+01  0.000E+00  0.000E+00  0.000E+00  1.07395E+03  2.019E+00  1.200E+01  7.800E-02  1.673E+00
   1    5    6     2     2    5.8664E+01  3.0068E-01   5.8363E+01  0.000E+00  0.000E+00  0.000E+00  1.06852E+03  2.011E+00  1.200E+01  6.000E-02  1.670E+00
   1    6    6     2     3    5.8363E+01  3.0031E-01   5.8063E+01  0.000E+00  0.000E+00  0.000E+00  1.06380E+03  2.005E+00  1.200E+01  6.000E-02  1.668E+00
   1    7    6     2     4    5.8063E+01  2.9994E-01   5.7763E+01  0.000E+00  0.000E+00  0.000E+00  1.05907E+03  1.999E+00  1.200E+01  6.000E-02  1.666E+00
   1    8    6     2     5    5.7763E+01  2.9957E-01   5.7463E+01  0.000E+00  0.000E+00  0.000E+00  1.05435E+03  1.993E+00  1.200E+01  6.000E-02  1.664E+00
   1    3    5     3     1    2.0000E+00  2.8252E-01   1.7175E+00  0.000E+00  0.000E+00  0.000E+00  1.07555E+03  1.909E+00  9.636E+00  7.227E-02  1.955E+00
   1    3    6     3     2    1.7175E+00  2.4905E-01   1.4684E+00  0.000E+00  0.000E+00  0.000E+00  1.07264E+03  1.727E+00  8.909E+00  6.682E-02  1.864E+00
   1    3    7     3     3    1.4684E+00  1.9718E-01   1.2712E+00  0.000E+00  0.000E+00  0.000E+00  1.06987E+03  1.555E+00  8.218E+00  5.547E-02  1.777E+00
   1    4    8     3     4    1.2712E+00  2.2567E-01   1.0456E+00  0.000E+00  0.000E+00  0.000E+00  1.06682E+03  1.364E+00  7.455E+00  6.709E-02  1.682E+00
   1    5    8     3     5    1.0456E+00  1.5790E-01   8.8768E-01  0.000E+00  0.000E+00  0.000E+00  1.06362E+03  1.164E+00  6.655E+00  4.991E-02  1.582E+00
   1    6    8     3     6    8.8768E-01  5.5980E-02   8.3170E-01  0.000E+00  0.000E+00  0.000E+00  1.06158E+03  1.036E+00  6.145E+00  1.844E-02  1.518E+00
   1    5   10     4     1    1.0000E+01  9.0919E-02   9.9091E+00  0.000E+00  0.000E+00  0.000E+00  1.07836E+03  6.368E-01  1.000E+01  2.500E-02  1.212E+00
   1    5    9     4     2    9.9091E+00  1.8158E-01   9.7275E+00  0.000E+00  0.000E+00  0.000E+00  1.07154E+03  6.315E-01  1.000E+01  5.000E-02  1.211E+00
   1    6    8     4     3    9.7275E+00  1.2689E-01   9.6006E+00  0.000E+00  0.000E+00  0.000E+00  1.06381E+03  6.256E-01  1.000E+01  3.500E-02  1.209E+00
   1    6    8     5     1    1.0432E+01  2.2686E-01   1.0205E+01  0.000E+00  0.000E+00  0.000E+00  1.05868E+03  6.790E-01  1.542E+01  6.166E-02  1.226E+00
   1    7    7     5     2    1.0205E+01  2.7894E-01   9.9265E+00  0.000E+00  0.000E+00  0.000E+00  1.05417E+03  6.732E-01  1.519E+01  7.594E-02  1.224E+00
   1    8    7     5     3    9.9265E+00  1.9221E-01   9.7343E+00  0.000E+00  0.000E+00  0.000E+00  1.04992E+03  6.676E-01  1.497E+01  5.241E-02  1.223E+00
   1    8    6     5     4    9.7343E+00  1.3577E-01   9.5985E+00  0.000E+00  0.000E+00  0.000E+00  1.04691E+03  6.637E-01  1.482E+01  3.706E-02  1.221E+00
   1    9    6     6     1    6.2678E+01  3.0699E-01   6.2371E+01  0.000E+00  0.000E+00  0.000E+00  1.04484E+03  2.116E+00  1.200E+01  6.000E-02  1.705E+00
   1   10    7     6     2    6.2371E+01  3.0661E-01   6.2065E+01  0.000E+00  0.000E+00  0.000E+00  1.04029E+03  2.110E+00  1.200E+01  6.000E-02  1.703E+00
   1   11    7     6     3    6.2065E+01  3.0624E-01   6.1759E+01  0.000E+00  0.000E+00  0.000E+00  1.03574E+03  2.104E+00  1.200E+01  6.000E-02  1.701E+00
   1   12    7     6     4    6.1759E+01  3.0586E-01   6.1453E+01  0.000E+00  0.000E+00  0.000E+00  1.03119E+03  2.098E+00  1.200E+01  6.000E-02  1.699E+00
   1   13    7     6     5    6.1453E+01  2.1953E-02   6.1431E+01  0.000E+00  0.000E+00  0.000E+00  1.02800E+03  2.094E+00  1.200E+01  2.400E-02  3.049E-01
   1   14    9     7     1    1.5000E+02  1.3377E+00   1.4866E+02  0.000E+00  0.000E+00  0.000E+00  1.03987E+03  2.288E+00  5.529E+01  5.593E-01  7.972E-01
   1   13    8     7     2    1.4866E+02  1.8249E+00   1.4684E+02  0.000E+00  0.000E+00  0.000E+00  1.03478E+03  2.279E+00  5.526E+01  6.148E-01  9.895E-01
   1   13    7     7     3    1.4684E+02  1.4526E+00   1.4538E+02  0.000E+00  0.000E+00  0.000E+00  1.02969E+03  2.271E+00  5.522E+01  5.585E-01  8.671E-01
   1   13    6     8     1    2.0682E+02  1.0810E+00   2.0573E+02  0.000E+00  0.000E+00  0.000E+00  1.02505E+03  3.174E+00  4.603E+01  4.690E-01  7.682E-01
   1   13    5     8     2    2.0573E+02  3.7054E-01   2.0536E+02  0.000E+00  0.000E+00  0.000E+00  1.01880E+03  3.170E+00  4.597E+01  4.684E-01  2.637E-01
   1   13    4     8     3    2.0536E+02 -1.2238E+00   2.0659E+02  0.000E+00  0.000E+00  0.000E+00  1.01255E+03  3.173E+00  4.600E+01  4.688E+00 -8.702E-02
   1   13    3     8     4    2.0659E+02 -2.4857E+00   2.0907E+02  0.000E+00  0.000E+00  0.000E+00  1.00631E+03  3.183E+00  4.616E+01  4.704E+00 -1.762E-01
   1   13    2     8     5    2.0907E+02 -1.9209E+00   2.1099E+02  0.000E+00  0.000E+00  0.000E+00  1.00007E+03  3.196E+00  4.634E+01  4.722E+00 -1.356E-01
   1   13    1     8     6    2.1099E+02 -1.0669E+00   2.1206E+02  0.000E+00  0.000E+00  0.000E+00  9.95079E+02  3.204E+00  4.646E+01  2.841E+00 -1.252E-01
   1    6    8     9     1    4.3836E+00  0.0000E+00   4.3836E+00  0.000E+00  0.000E+00  0.000E+00  1.07883E+03  3.286E-01  4.000E+00  0.000E+00  1.110E+00



 UBDSV3 SAVING "           GW ET" ON UNIT  61 AT TIME STEP    15, STRESS PERIOD   8
 UBDSV3 SAVING "    UZF RECHARGE" ON UNIT  61 AT TIME STEP    15, STRESS PERIOD   8
 UBDSV3 SAVING " SURFACE LEAKAGE" ON UNIT  61 AT TIME STEP    15, STRESS PERIOD   8
 UBDSV3 SAVING "       HORT+DUNN" ON UNIT  61 AT TIME STEP    15, STRESS PERIOD   8
 UBDSV3 SAVING "  STORAGE CHANGE" ON UNIT  61 AT TIME STEP    15, STRESS PERIOD   8


UNSATURATED ZONE PACKAGE VOLUMETRIC BUDGET FOR  TIME STEP    15 STRESS PERIOD    8
  ------------------------------------------------------------------------------



     CUMULATIVE VOLUMES      L**3       RATES FOR THIS TIME STEP      L**3/T
     ------------------                 ------------------------

           IN:                                      IN:
           ---                                      ---
        INFILTRATION =    35424730.7578          INFILTRATION =          17.1862

          OUT:                                     OUT:
          ----                                     ----
              UZF ET =    14848505.1116                UZF ET =           4.9339
        UZF RECHARGE =     1968140.9720          UZF RECHARGE =           0.0862

            IN - OUT =    18608084.6742              IN - OUT =          12.1662

          STORAGE:                                 STORAGE:
          --------                                 --------
      STORAGE CHANGE =    18615396.6978        STORAGE CHANGE =          12.1662

 PERCENT DISCREPANCY IS DIFFERENCE BETWEEN IN-OUT MINUS CHANGE IN STORAGE
 DIVIDED BY THE AVERAGE OF IN AND OUT TIMES 100

 PERCENT DISCREPANCY =          -0.01     PERCENT DISCREPANCY =          -0.00






 

 AWU WELLS                PERIOD    8   STEP  15
 AWU WELL      1   LAYER   1   ROW     6   COL     4   RATE    -2.13376    
 AWU WELL      2   LAYER   1   ROW     6   COL     5   RATE    -2.13376    
 AWU WELL      3   LAYER   1   ROW     7   COL     4   RATE    -2.13376    
 AWU WELL      4   LAYER   1   ROW     7   COL     5   RATE    -2.13376    
 AWU WELL      5   LAYER   1   ROW     8   COL     4   RATE    -2.13376    
 AWU WELL      6   LAYER   1   ROW     8   COL     5   RATE    -2.13376    
 
 

 DIVERSION SEGMENTS       PERIOD    8   STEP  15
 SEGMENT      9   RATE     4.38356    
 
 

 SW IRRIGATION            PERIOD    8   STEP  15
 SEGMENT      9   ROW     6   COL     4   RATE    0.730608    
 SEGMENT      9   ROW     6   COL     5   RATE    0.730608    
 SEGMENT      9   ROW     7   COL     4   RATE    0.730608    
 SEGMENT      9   ROW     7   COL     5   RATE    0.730608    
 SEGMENT      9   ROW     8   COL     4   RATE    0.730608    
 SEGMENT      9   ROW     8   COL     5   RATE    0.730608    
 
 

 GW IRRIGATION            PERIOD    8   STEP  15
 AWU WELL      1   ROW     6   COL     4   RATE     2.13376    
 AWU WELL      2   ROW     6   COL     5   RATE     2.13376    
 AWU WELL      3   ROW     7   COL     4   RATE     2.13376    
 AWU WELL      4   ROW     7   COL     5   RATE     2.13376    
 AWU WELL      5   ROW     8   COL     4   RATE     2.13376    
 AWU WELL      6   ROW     8   COL     5   RATE     2.13376    
 
1
  VOLUMETRIC BUDGET FOR ENTIRE MODEL AT END OF TIME STEP   15, STRESS PERIOD   8
  ------------------------------------------------------------------------------

     CUMULATIVE VOLUMES      L**3       RATES FOR THIS TIME STEP      L**3/T
     ------------------                 ------------------------

           IN:                                      IN:
           ---                                      ---
    AWU WELLS            =    10028493.0000      AWU WELLS            =          12.8025
    DIVERSION SEGMENTS   =    25323014.0000      DIVERSION SEGMENTS   =           4.3836
    GW IRRIGATION        =           0.0000      GW IRRIGATION        =           0.0000
    SW IRRIGATION        =           0.0000      SW IRRIGATION        =           0.0000
    EFFICIENCY FACTOR GW =           0.0000      EFFICIENCY FACTOR GW =           0.0000
    EFFICIENCY FACTOR SW =           0.0000      EFFICIENCY FACTOR SW =           0.0000

                TOTAL IN =    35351508.0000                  TOTAL IN =          17.1862

          OUT:                                     OUT:
          ----                                     ----
    AWU WELLS            =           0.0000      AWU WELLS            =           0.0000
    DIVERSION SEGMENTS   =           0.0000      DIVERSION SEGMENTS   =           0.0000
    GW IRRIGATION        =    10028493.0000      GW IRRIGATION        =          12.8025
    SW IRRIGATION        =    25323014.0000      SW IRRIGATION        =           4.3836
    EFFICIENCY FACTOR GW =           0.0000      EFFICIENCY FACTOR GW =           0.0000
    EFFICIENCY FACTOR SW =           0.0000      EFFICIENCY FACTOR SW =           0.0000

               TOTAL OUT =    35351508.0000                 TOTAL OUT =          17.1862

                IN - OUT =           0.0000                  IN - OUT =           0.0000

     PERCENT DISCREPANCY =           0.00         PERCENT DISCREPANCY =           0.00



1
  VOLUMETRIC BUDGET FOR ENTIRE MODEL AT END OF TIME STEP   15, STRESS PERIOD   8
  ------------------------------------------------------------------------------

     CUMULATIVE VOLUMES      L**3       RATES FOR THIS TIME STEP      L**3/T
     ------------------                 ------------------------

           IN:                                      IN:
           ---                                      ---
             STORAGE     =    31979186.0000               STORAGE     =          15.6679
       CONSTANT HEAD     =           0.0000         CONSTANT HEAD     =           0.0000
     HEAD DEP BOUNDS     =     4907589.0000       HEAD DEP BOUNDS     =           0.2859
      STREAM LEAKAGE     =   212984032.0000        STREAM LEAKAGE     =          13.2525
        UZF RECHARGE     =     1968141.3750          UZF RECHARGE     =       8.6177E-02
               GW ET     =           0.0000                 GW ET     =           0.0000
     SURFACE LEAKAGE     =           0.0000       SURFACE LEAKAGE     =           0.0000
    AWU WELLS            =           0.0000      AWU WELLS            =           0.0000

                TOTAL IN =   251838960.0000                  TOTAL IN =          29.2924

          OUT:                                     OUT:
          ----                                     ----
             STORAGE     =    45456380.0000               STORAGE     =           1.5440
       CONSTANT HEAD     =           0.0000         CONSTANT HEAD     =           0.0000
     HEAD DEP BOUNDS     =     4987927.5000       HEAD DEP BOUNDS     =           0.2833
      STREAM LEAKAGE     =   167945136.0000        STREAM LEAKAGE     =           6.6973
        UZF RECHARGE     =           0.0000          UZF RECHARGE     =           0.0000
               GW ET     =    23430756.0000                 GW ET     =           7.9661
     SURFACE LEAKAGE     =           0.0000       SURFACE LEAKAGE     =           0.0000
    AWU WELLS            =    10028493.0000      AWU WELLS            =          12.8025

               TOTAL OUT =   251848688.0000                 TOTAL OUT =          29.2932

                IN - OUT =       -9728.0000                  IN - OUT =      -7.8392E-04

     PERCENT DISCREPANCY =          -0.00         PERCENT DISCREPANCY =          -0.00






         TIME SUMMARY AT END OF TIME STEP   15 IN STRESS PERIOD    8
                    SECONDS     MINUTES      HOURS       DAYS        YEARS
                    -----------------------------------------------------------
   TIME STEP LENGTH  87600.      1460.0      24.333      1.0139     2.77588E-03
 STRESS PERIOD TIME 1.31400E+06  21900.      365.00      15.208     4.16381E-02
         TOTAL TIME 1.71684E+07 2.86140E+05  4769.0      198.71     0.54403    
1
 
 SOLVING FOR HEAD 
                                                   Max.-Head-Change                         Max.-Flux-Residual
  Residual-Control   Outer-Iter.   Inner-Iter.     Column Row Layer    Maximum-Head-Change  Column Row Layer    Maximum-Flux-Residual          L2-NORM 
          0                 1           2             5   13     1      -0.1158095880E-01       5   13    1        -0.6279563143E+00      0.1110382366E+01
          0                 2           2             5   13     1       0.1147043078E-02       5   13    1         0.6277180889E-01      0.1034926854E+00
          0                 3           1             5   13     1      -0.1022452258E-03       5   13    1        -0.5647128587E-02      0.9095309645E-02
          0                 4           1             5   13     1       0.8111424005E-05       5   13    1         0.4521452920E-03      0.7191603871E-03

    ------------------------------------------------
       NWT REQUIRED            4 OUTER ITERATIONS 
       AND A TOTAL OF          6 INNER ITERATIONS.
    ------------------------------------------------

 NO OUTPUT CONTROL FOR STRESS PERIOD    8   TIME STEP   16
 
 SOLVING FOR HEAD 
                                                   Max.-Head-Change                         Max.-Flux-Residual
  Residual-Control   Outer-Iter.   Inner-Iter.     Column Row Layer    Maximum-Head-Change  Column Row Layer    Maximum-Flux-Residual          L2-NORM 
          0                 1           2             5   13     1      -0.1110637425E-01       5   13    1        -0.6020628539E+00      0.1069276884E+01
          0                 2           2             5   13     1       0.1100031914E-02       5   13    1         0.6018312676E-01      0.9921906936E-01
          0                 3           1             5   13     1      -0.9805551390E-04       5   13    1        -0.5414282085E-02      0.8713709322E-02

    ------------------------------------------------
       NWT REQUIRED            3 OUTER ITERATIONS 
       AND A TOTAL OF          5 INNER ITERATIONS.
    ------------------------------------------------

 NO OUTPUT CONTROL FOR STRESS PERIOD    8   TIME STEP   17
 
 SOLVING FOR HEAD 
                                                   Max.-Head-Change                         Max.-Flux-Residual
  Residual-Control   Outer-Iter.   Inner-Iter.     Column Row Layer    Maximum-Head-Change  Column Row Layer    Maximum-Flux-Residual          L2-NORM 
          0                 1           2             5   13     1      -0.1065362871E-01       5   13    1        -0.5773648888E+00      0.1031050925E+01
          0                 2           2             5   13     1       0.1055182784E-02       5   13    1         0.5771388241E-01      0.9522444960E-01
          0                 3           1             5   13     1      -0.9405552452E-04       5   13    1        -0.5192019280E-02      0.8355392915E-02

    ------------------------------------------------
       NWT REQUIRED            3 OUTER ITERATIONS 
       AND A TOTAL OF          5 INNER ITERATIONS.
    ------------------------------------------------

 NO OUTPUT CONTROL FOR STRESS PERIOD    8   TIME STEP   18
 
 SOLVING FOR HEAD 
                                                   Max.-Head-Change                         Max.-Flux-Residual
  Residual-Control   Outer-Iter.   Inner-Iter.     Column Row Layer    Maximum-Head-Change  Column Row Layer    Maximum-Flux-Residual          L2-NORM 
          0                 1           2             5   13     1      -0.1022220215E-01       5   13    1        -0.5538339156E+00      0.9955186510E+00
          0                 2           2             5   13     1       0.1012446151E-02       5   13    1         0.5536134560E-01      0.9149205472E-01
          0                 3           1             5   13     1      -0.9024595675E-04       5   13    1        -0.4980371204E-02      0.8020624545E-02

    ------------------------------------------------
       NWT REQUIRED            3 OUTER ITERATIONS 
       AND A TOTAL OF          5 INNER ITERATIONS.
    ------------------------------------------------

 NO OUTPUT CONTROL FOR STRESS PERIOD    8   TIME STEP   19
 
 SOLVING FOR HEAD 
                                                   Max.-Head-Change                         Max.-Flux-Residual
  Residual-Control   Outer-Iter.   Inner-Iter.     Column Row Layer    Maximum-Head-Change  Column Row Layer    Maximum-Flux-Residual          L2-NORM 
          0                 1           2             5   13     1      -0.9810875977E-02       5   13    1        -0.5314028778E+00      0.9624854543E+00
          0                 2           2             5   13     1       0.9717023980E-03       5   13    1         0.5311889723E-01      0.8799798773E-01
          0                 3           1             5   13     1      -0.8661437201E-04       5   13    1        -0.4778659740E-02      0.7705724095E-02

    ------------------------------------------------
       NWT REQUIRED            3 OUTER ITERATIONS 
       AND A TOTAL OF          5 INNER ITERATIONS.
    ------------------------------------------------

 NO OUTPUT CONTROL FOR STRESS PERIOD    8   TIME STEP   20
 
 SOLVING FOR HEAD 
                                                   Max.-Head-Change                         Max.-Flux-Residual
  Residual-Control   Outer-Iter.   Inner-Iter.     Column Row Layer    Maximum-Head-Change  Column Row Layer    Maximum-Flux-Residual          L2-NORM 
          0                 1           2             5   13     1      -0.9418835025E-02       5   13    1        -0.5100274578E+00      0.9317443294E+00
          0                 2           2             5   13     1       0.9328687221E-03       5   13    1         0.5098194615E-01      0.8473221735E-01
          0                 3           1             5   13     1      -0.8315122460E-04       5   13    1        -0.4586311366E-02      0.7412482208E-02

    ------------------------------------------------
       NWT REQUIRED            3 OUTER ITERATIONS 
       AND A TOTAL OF          5 INNER ITERATIONS.
    ------------------------------------------------

 NO OUTPUT CONTROL FOR STRESS PERIOD    8   TIME STEP   21
 
 SOLVING FOR HEAD 
                                                   Max.-Head-Change                         Max.-Flux-Residual
  Residual-Control   Outer-Iter.   Inner-Iter.     Column Row Layer    Maximum-Head-Change  Column Row Layer    Maximum-Flux-Residual          L2-NORM 
          0                 1           2             1   13     1      -0.1109482077E-01       1   13    1        -0.6095786358E+00      0.1425000326E+01
          0                 2           2             4   13     1       0.4959456741E-02       4   13    1         0.2893446085E+00      0.5159733550E+00
          0                 3           2             4   13     1      -0.4367219819E-03       4   13    1        -0.2571625857E-01      0.4484196975E-01
          0                 4           1             4   13     1       0.3417678978E-04       4   13    1         0.2031222448E-02      0.3457312586E-02

    ------------------------------------------------
       NWT REQUIRED            4 OUTER ITERATIONS 
       AND A TOTAL OF          7 INNER ITERATIONS.
    ------------------------------------------------

 NO OUTPUT CONTROL FOR STRESS PERIOD    8   TIME STEP   22
 
 SOLVING FOR HEAD 
                                                   Max.-Head-Change                         Max.-Flux-Residual
  Residual-Control   Outer-Iter.   Inner-Iter.     Column Row Layer    Maximum-Head-Change  Column Row Layer    Maximum-Flux-Residual          L2-NORM 
          0                 1           2             1   13     1      -0.1094815693E-01       1   13    1        -0.6013663541E+00      0.1419512264E+01
          0                 2           2             4   13     1       0.5850974383E-02       4   13    1         0.3415417864E+00      0.6043953781E+00
          0                 3           2             4   13     1      -0.5152654198E-03       4   13    1        -0.3035784819E-01      0.5251385419E-01
          0                 4           1             4   13     1       0.4033097393E-04       4   13    1         0.2398305889E-02      0.4046810606E-02

    ------------------------------------------------
       NWT REQUIRED            4 OUTER ITERATIONS 
       AND A TOTAL OF          7 INNER ITERATIONS.
    ------------------------------------------------

 NO OUTPUT CONTROL FOR STRESS PERIOD    8   TIME STEP   23
 
 SOLVING FOR HEAD 
                                                   Max.-Head-Change                         Max.-Flux-Residual
  Residual-Control   Outer-Iter.   Inner-Iter.     Column Row Layer    Maximum-Head-Change  Column Row Layer    Maximum-Flux-Residual          L2-NORM 
          0                 1           2             1   13     1      -0.1050748679E-01       1   13    1        -0.5771483224E+00      0.1373175119E+01
          0                 2           2             4   13     1       0.5948007116E-02       4   13    1         0.3472489747E+00      0.6135982405E+00
          0                 3           2             4   13     1      -0.5238192343E-03       4   13    1        -0.3086569775E-01      0.5330750152E-01
          0                 4           1             4   13     1       0.4100593744E-04       4   13    1         0.2438768696E-02      0.4107868584E-02

    ------------------------------------------------
       NWT REQUIRED            4 OUTER ITERATIONS 
       AND A TOTAL OF          7 INNER ITERATIONS.
    ------------------------------------------------

 NO OUTPUT CONTROL FOR STRESS PERIOD    8   TIME STEP   24
 
 SOLVING FOR HEAD 
                                                   Max.-Head-Change                         Max.-Flux-Residual
  Residual-Control   Outer-Iter.   Inner-Iter.     Column Row Layer    Maximum-Head-Change  Column Row Layer    Maximum-Flux-Residual          L2-NORM 
          0                 1           2             1   13     1      -0.1009375525E-01       1   13    1        -0.5544056188E+00      0.1331106100E+01
          0                 2           2             4   13     1       0.6033284097E-02       4   13    1         0.3522674674E+00      0.6215787450E+00
          0                 3           2             4   13     1      -0.5313229153E-03       4   13    1        -0.3131142400E-01      0.5399523109E-01
          0                 4           1             4   13     1       0.4159247092E-04       4   13    1         0.2473930780E-02      0.4160654547E-02

    ------------------------------------------------
       NWT REQUIRED            4 OUTER ITERATIONS 
       AND A TOTAL OF          7 INNER ITERATIONS.
    ------------------------------------------------

 NO OUTPUT CONTROL FOR STRESS PERIOD    8   TIME STEP   25
 
 SOLVING FOR HEAD 
                                                   Max.-Head-Change                         Max.-Flux-Residual
  Residual-Control   Outer-Iter.   Inner-Iter.     Column Row Layer    Maximum-Head-Change  Column Row Layer    Maximum-Flux-Residual          L2-NORM 
          0                 1           2             1   13     1      -0.9705185915E-02       1   13    1        -0.5330415486E+00      0.1292809086E+01
          0                 2           2             4   13     1       0.6108260707E-02       4   13    1         0.3566823687E+00      0.6284943274E+00
          0                 3           2             4   13     1      -0.5379316967E-03       4   13    1        -0.3170424869E-01      0.5459005588E-01
          0                 4           1             4   13     1       0.4210716104E-04       4   13    1         0.2504819172E-02      0.4205584974E-02

    ------------------------------------------------
       NWT REQUIRED            4 OUTER ITERATIONS 
       AND A TOTAL OF          7 INNER ITERATIONS.
    ------------------------------------------------

 NO OUTPUT CONTROL FOR STRESS PERIOD    8   TIME STEP   26
 
 SOLVING FOR HEAD 
                                                   Max.-Head-Change                         Max.-Flux-Residual
  Residual-Control   Outer-Iter.   Inner-Iter.     Column Row Layer    Maximum-Head-Change  Column Row Layer    Maximum-Flux-Residual          L2-NORM 
          0                 1           2             1   13     1      -0.9340233957E-02       1   13    1        -0.5129719916E+00      0.1257881425E+01
          0                 2           2             4   13     1       0.6174177788E-02       4   13    1         0.3605661215E+00      0.6344845084E+00
          0                 3           2             4   13     1      -0.5437231615E-03       4   13    1        -0.3204870322E-01      0.5510405485E-01
          0                 4           1             4   13     1       0.4255839256E-04       4   13    1         0.2531908156E-02      0.4244458690E-02

    ------------------------------------------------
       NWT REQUIRED            4 OUTER ITERATIONS 
       AND A TOTAL OF          7 INNER ITERATIONS.
    ------------------------------------------------

 NO OUTPUT CONTROL FOR STRESS PERIOD    8   TIME STEP   27
 
 SOLVING FOR HEAD 
                                                   Max.-Head-Change                         Max.-Flux-Residual
  Residual-Control   Outer-Iter.   Inner-Iter.     Column Row Layer    Maximum-Head-Change  Column Row Layer    Maximum-Flux-Residual          L2-NORM 
          0                 1           2             1   13     1      -0.8599755210E-02       1   13    1        -0.4724387741E+00      0.1171814045E+01
          0                 2           2             4   13     1       0.5464822219E-02       4   13    1         0.3190872560E+00      0.5630821076E+00
          0                 3           2             4   13     1      -0.4812212348E-03       4   13    1        -0.2835983673E-01      0.4889859107E-01
          0                 4           1             4   13     1       0.3765911212E-04       4   13    1         0.2240046426E-02      0.3766954416E-02

    ------------------------------------------------
       NWT REQUIRED            4 OUTER ITERATIONS 
       AND A TOTAL OF          7 INNER ITERATIONS.
    ------------------------------------------------

 NO OUTPUT CONTROL FOR STRESS PERIOD    8   TIME STEP   28
 
 SOLVING FOR HEAD 
                                                   Max.-Head-Change                         Max.-Flux-Residual
  Residual-Control   Outer-Iter.   Inner-Iter.     Column Row Layer    Maximum-Head-Change  Column Row Layer    Maximum-Flux-Residual          L2-NORM 
          0                 1           2             5   13     1      -0.6892342602E-02       5   13    1        -0.3735857424E+00      0.7304748552E+00
          0                 2           2             5   13     1       0.6826310669E-03       5   13    1         0.3734183694E-01      0.6292752089E-01
          0                 3           1             5   13     1      -0.6084649265E-04       5   13    1        -0.3359163168E-02      0.5453907184E-02

    ------------------------------------------------
       NWT REQUIRED            3 OUTER ITERATIONS 
       AND A TOTAL OF          5 INNER ITERATIONS.
    ------------------------------------------------

 NO OUTPUT CONTROL FOR STRESS PERIOD    8   TIME STEP   29
 
 SOLVING FOR HEAD 
                                                   Max.-Head-Change                         Max.-Flux-Residual
  Residual-Control   Outer-Iter.   Inner-Iter.     Column Row Layer    Maximum-Head-Change  Column Row Layer    Maximum-Flux-Residual          L2-NORM 
          0                 1           2             4   13     1      -0.1097780210E-01       4   13    1        -0.6288051712E+00      0.1351044533E+01
          0                 2           2             4   13     1       0.1073944937E-02       4   13    1         0.6208054326E-01      0.1297070641E+00
          0                 3           1             4   13     1      -0.9443490147E-04       4   13    1        -0.5509075058E-02      0.1133237461E-01

    ------------------------------------------------
       NWT REQUIRED            3 OUTER ITERATIONS 
       AND A TOTAL OF          5 INNER ITERATIONS.
    ------------------------------------------------

 NO OUTPUT CONTROL FOR STRESS PERIOD    8   TIME STEP   30



 STREAM LISTING     PERIOD      8   STEP       30

 LAYER ROW COL. STREAM  RCH.  FLOW INTO     FLOW TO   FLOW OUT OF   OVRLND.     DIRECT     STREAM       STREAM     STREAM     STREAM   STREAMBED  STREAMBED
                SEG.NO.  NO.  STRM. RCH.    AQUIFER    STRM. RCH.    RUNOFF     PRECIP       ET          HEAD       DEPTH      WIDTH   CONDCTNC.   GRADIENT

   1    1    1     1     1    3.6662E+01  2.9230E-01   3.6370E+01  0.000E+00  0.000E+00  0.000E+00  1.09435E+03  1.306E+00  1.509E+01  6.789E-02  1.435E+00
   1    2    2     1     2    3.6370E+01  4.5261E-01   3.5917E+01  0.000E+00  0.000E+00  0.000E+00  1.08936E+03  1.303E+00  1.503E+01  1.052E-01  1.434E+00
   1    3    3     1     3    3.5917E+01  3.8593E-01   3.5531E+01  0.000E+00  0.000E+00  0.000E+00  1.08372E+03  1.299E+00  1.496E+01  8.976E-02  1.433E+00
   1    3    4     1     4    3.5531E+01  3.5533E-01   3.5176E+01  0.000E+00  0.000E+00  0.000E+00  1.07870E+03  1.296E+00  1.490E+01  8.270E-02  1.432E+00
   1    4    5     2     1    3.3176E+01  3.4527E-01   3.2831E+01  0.000E+00  0.000E+00  0.000E+00  1.07336E+03  1.427E+00  1.200E+01  7.800E-02  1.476E+00
   1    5    6     2     2    3.2831E+01  2.6512E-01   3.2566E+01  0.000E+00  0.000E+00  0.000E+00  1.06793E+03  1.419E+00  1.200E+01  6.000E-02  1.473E+00
   1    6    6     2     3    3.2566E+01  2.6470E-01   3.2301E+01  0.000E+00  0.000E+00  0.000E+00  1.06320E+03  1.412E+00  1.200E+01  6.000E-02  1.471E+00
   1    7    6     2     4    3.2301E+01  2.6429E-01   3.2037E+01  0.000E+00  0.000E+00  0.000E+00  1.05848E+03  1.405E+00  1.200E+01  6.000E-02  1.468E+00
   1    8    6     2     5    3.2037E+01  2.6387E-01   3.1773E+01  0.000E+00  0.000E+00  0.000E+00  1.05376E+03  1.398E+00  1.200E+01  6.000E-02  1.466E+00
   1    3    5     3     1    2.0000E+00  2.8252E-01   1.7175E+00  0.000E+00  0.000E+00  0.000E+00  1.07555E+03  1.909E+00  9.636E+00  7.227E-02  1.955E+00
   1    3    6     3     2    1.7175E+00  2.4905E-01   1.4684E+00  0.000E+00  0.000E+00  0.000E+00  1.07264E+03  1.727E+00  8.909E+00  6.682E-02  1.864E+00
   1    3    7     3     3    1.4684E+00  1.9718E-01   1.2712E+00  0.000E+00  0.000E+00  0.000E+00  1.06987E+03  1.555E+00  8.218E+00  5.547E-02  1.777E+00
   1    4    8     3     4    1.2712E+00  2.2567E-01   1.0456E+00  0.000E+00  0.000E+00  0.000E+00  1.06682E+03  1.364E+00  7.455E+00  6.709E-02  1.682E+00
   1    5    8     3     5    1.0456E+00  1.5790E-01   8.8768E-01  0.000E+00  0.000E+00  0.000E+00  1.06362E+03  1.164E+00  6.655E+00  4.991E-02  1.582E+00
   1    6    8     3     6    8.8768E-01  5.5980E-02   8.3170E-01  0.000E+00  0.000E+00  0.000E+00  1.06158E+03  1.036E+00  6.145E+00  1.844E-02  1.518E+00
   1    5   10     4     1    1.0000E+01  9.0919E-02   9.9091E+00  0.000E+00  0.000E+00  0.000E+00  1.07836E+03  6.368E-01  1.000E+01  2.500E-02  1.212E+00
   1    5    9     4     2    9.9091E+00  1.8158E-01   9.7275E+00  0.000E+00  0.000E+00  0.000E+00  1.07154E+03  6.315E-01  1.000E+01  5.000E-02  1.211E+00
   1    6    8     4     3    9.7275E+00  1.2689E-01   9.6006E+00  0.000E+00  0.000E+00  0.000E+00  1.06381E+03  6.256E-01  1.000E+01  3.500E-02  1.209E+00
   1    6    8     5     1    1.0432E+01  2.2686E-01   1.0205E+01  0.000E+00  0.000E+00  0.000E+00  1.05868E+03  6.790E-01  1.542E+01  6.166E-02  1.226E+00
   1    7    7     5     2    1.0205E+01  2.7894E-01   9.9265E+00  0.000E+00  0.000E+00  0.000E+00  1.05417E+03  6.732E-01  1.519E+01  7.594E-02  1.224E+00
   1    8    7     5     3    9.9265E+00  1.9221E-01   9.7343E+00  0.000E+00  0.000E+00  0.000E+00  1.04992E+03  6.676E-01  1.497E+01  5.241E-02  1.223E+00
   1    8    6     5     4    9.7343E+00  1.3577E-01   9.5985E+00  0.000E+00  0.000E+00  0.000E+00  1.04691E+03  6.637E-01  1.482E+01  3.706E-02  1.221E+00
   1    9    6     6     1    4.1371E+01  2.7891E-01   4.1092E+01  0.000E+00  0.000E+00  0.000E+00  1.04438E+03  1.649E+00  1.200E+01  6.000E-02  1.550E+00
   1   10    7     6     2    4.1092E+01  2.7851E-01   4.0814E+01  0.000E+00  0.000E+00  0.000E+00  1.03982E+03  1.642E+00  1.200E+01  6.000E-02  1.547E+00
   1   11    7     6     3    4.0814E+01  2.7811E-01   4.0536E+01  0.000E+00  0.000E+00  0.000E+00  1.03527E+03  1.635E+00  1.200E+01  6.000E-02  1.545E+00
   1   12    7     6     4    4.0536E+01  2.7771E-01   4.0258E+01  0.000E+00  0.000E+00  0.000E+00  1.03072E+03  1.628E+00  1.200E+01  6.000E-02  1.543E+00
   1   13    7     6     5    4.0258E+01  1.1372E-02   4.0247E+01  0.000E+00  0.000E+00  0.000E+00  1.02753E+03  1.625E+00  1.200E+01  2.400E-02  1.579E-01
   1   14    9     7     1    1.5000E+02  1.3376E+00   1.4866E+02  0.000E+00  0.000E+00  0.000E+00  1.03987E+03  2.288E+00  5.529E+01  5.593E-01  7.972E-01
   1   13    8     7     2    1.4866E+02  1.8273E+00   1.4684E+02  0.000E+00  0.000E+00  0.000E+00  1.03478E+03  2.279E+00  5.526E+01  6.148E-01  9.908E-01
   1   13    7     7     3    1.4684E+02  1.4685E+00   1.4537E+02  0.000E+00  0.000E+00  0.000E+00  1.02969E+03  2.271E+00  5.522E+01  5.585E-01  8.765E-01
   1   13    6     8     1    1.8561E+02  1.0138E+00   1.8460E+02  0.000E+00  0.000E+00  0.000E+00  1.02492E+03  3.048E+00  4.420E+01  4.504E-01  7.504E-01
   1   13    5     8     2    1.8460E+02  3.5556E-01   1.8424E+02  0.000E+00  0.000E+00  0.000E+00  1.01867E+03  3.044E+00  4.413E+01  4.497E-01  2.635E-01
   1   13    4     8     3    1.8424E+02 -1.4865E+00   1.8573E+02  0.000E+00  0.000E+00  0.000E+00  1.01242E+03  3.047E+00  4.418E+01  4.503E+00 -1.100E-01
   1   13    3     8     4    1.8573E+02 -2.7082E+00   1.8844E+02  0.000E+00  0.000E+00  0.000E+00  1.00619E+03  3.060E+00  4.437E+01  4.522E+00 -1.996E-01
   1   13    2     8     5    1.8844E+02 -2.1730E+00   1.9061E+02  0.000E+00  0.000E+00  0.000E+00  9.99950E+02  3.075E+00  4.459E+01  4.544E+00 -1.594E-01
   1   13    1     8     6    1.9061E+02 -1.0715E+00   1.9168E+02  0.000E+00  0.000E+00  0.000E+00  9.94960E+02  3.085E+00  4.473E+01  2.735E+00 -1.306E-01
   1    6    8     9     1    0.0000E+00  0.0000E+00   0.0000E+00  0.000E+00  0.000E+00  0.000E+00  1.07850E+03  0.000E+00  4.000E+00  0.000E+00  1.000E+00





UNSATURATED ZONE PACKAGE VOLUMETRIC BUDGET FOR  TIME STEP    30 STRESS PERIOD    8
  ------------------------------------------------------------------------------



     CUMULATIVE VOLUMES      L**3       RATES FOR THIS TIME STEP      L**3/T
     ------------------                 ------------------------

           IN:                                      IN:
           ---                                      ---
        INFILTRATION =    40252848.5391          INFILTRATION =       0.0000E+00

          OUT:                                     OUT:
          ----                                     ----
              UZF ET =    23820144.9397                UZF ET =           7.5986
        UZF RECHARGE =     2078952.1193          UZF RECHARGE =           0.0577

            IN - OUT =    14353751.4800              IN - OUT =          -7.6563

          STORAGE:                                 STORAGE:
          --------                                 --------
      STORAGE CHANGE =    14366009.1390        STORAGE CHANGE =          -7.6563

 PERCENT DISCREPANCY IS DIFFERENCE BETWEEN IN-OUT MINUS CHANGE IN STORAGE
 DIVIDED BY THE AVERAGE OF IN AND OUT TIMES 100

 PERCENT DISCREPANCY =          -0.01     PERCENT DISCREPANCY =          -0.00






1
  VOLUMETRIC BUDGET FOR ENTIRE MODEL AT END OF TIME STEP   30, STRESS PERIOD   8
  ------------------------------------------------------------------------------

     CUMULATIVE VOLUMES      L**3       RATES FOR THIS TIME STEP      L**3/T
     ------------------                 ------------------------

           IN:                                      IN:
           ---                                      ---
    AWU WELLS            =    10028493.0000      AWU WELLS            =           0.0000
    DIVERSION SEGMENTS   =    30151132.0000      DIVERSION SEGMENTS   =           0.0000
    GW IRRIGATION        =           0.0000      GW IRRIGATION        =           0.0000
    SW IRRIGATION        =           0.0000      SW IRRIGATION        =           0.0000
    EFFICIENCY FACTOR GW =           0.0000      EFFICIENCY FACTOR GW =           0.0000
    EFFICIENCY FACTOR SW =           0.0000      EFFICIENCY FACTOR SW =           0.0000

                TOTAL IN =    40179624.0000                  TOTAL IN =           0.0000

          OUT:                                     OUT:
          ----                                     ----
    AWU WELLS            =           0.0000      AWU WELLS            =           0.0000
    DIVERSION SEGMENTS   =           0.0000      DIVERSION SEGMENTS   =           0.0000
    GW IRRIGATION        =    10028493.0000      GW IRRIGATION        =           0.0000
    SW IRRIGATION        =    30151132.0000      SW IRRIGATION        =           0.0000
    EFFICIENCY FACTOR GW =           0.0000      EFFICIENCY FACTOR GW =           0.0000
    EFFICIENCY FACTOR SW =           0.0000      EFFICIENCY FACTOR SW =           0.0000

               TOTAL OUT =    40179624.0000                 TOTAL OUT =           0.0000

                IN - OUT =           0.0000                  IN - OUT =           0.0000

     PERCENT DISCREPANCY =           0.00         PERCENT DISCREPANCY =           0.00



1
  VOLUMETRIC BUDGET FOR ENTIRE MODEL AT END OF TIME STEP   30, STRESS PERIOD   8
  ------------------------------------------------------------------------------

     CUMULATIVE VOLUMES      L**3       RATES FOR THIS TIME STEP      L**3/T
     ------------------                 ------------------------

           IN:                                      IN:
           ---                                      ---
             STORAGE     =    35825364.0000               STORAGE     =           4.2493
       CONSTANT HEAD     =           0.0000         CONSTANT HEAD     =           0.0000
     HEAD DEP BOUNDS     =     5283238.5000       HEAD DEP BOUNDS     =           0.2859
      STREAM LEAKAGE     =   230403584.0000        STREAM LEAKAGE     =          12.4183
        UZF RECHARGE     =     2078952.1250          UZF RECHARGE     =       5.7734E-02
               GW ET     =           0.0000                 GW ET     =           0.0000
     SURFACE LEAKAGE     =           0.0000       SURFACE LEAKAGE     =           0.0000
    AWU WELLS            =           0.0000      AWU WELLS            =           0.0000

                TOTAL IN =   273591136.0000                  TOTAL IN =          17.0112

          OUT:                                     OUT:
          ----                                     ----
             STORAGE     =    48270172.0000               STORAGE     =           1.5193
       CONSTANT HEAD     =           0.0000         CONSTANT HEAD     =           0.0000
     HEAD DEP BOUNDS     =     5357264.0000       HEAD DEP BOUNDS     =           0.2794
      STREAM LEAKAGE     =   176184736.0000        STREAM LEAKAGE     =           7.4392
        UZF RECHARGE     =           0.0000          UZF RECHARGE     =           0.0000
               GW ET     =    33759696.0000                 GW ET     =           7.7707
     SURFACE LEAKAGE     =           0.0000       SURFACE LEAKAGE     =           0.0000
    AWU WELLS            =    10028493.0000      AWU WELLS            =           0.0000

               TOTAL OUT =   273600352.0000                 TOTAL OUT =          17.0086

                IN - OUT =       -9216.0000                  IN - OUT =       2.6150E-03

     PERCENT DISCREPANCY =          -0.00         PERCENT DISCREPANCY =           0.02






         TIME SUMMARY AT END OF TIME STEP   30 IN STRESS PERIOD    8
                    SECONDS     MINUTES      HOURS       DAYS        YEARS
                    -----------------------------------------------------------
   TIME STEP LENGTH  87600.      1460.0      24.333      1.0139     2.77588E-03
 STRESS PERIOD TIME 2.62800E+06  43800.      730.00      30.417     8.32763E-02
         TOTAL TIME 1.84824E+07 3.08040E+05  5134.0      213.92     0.58567    
1
1
                            STRESS PERIOD NO.    9, LENGTH =   2628000.    
                            -----------------------------------------------

                              NUMBER OF TIME STEPS =    30

                               MULTIPLIER FOR DELT =     1.000

                            INITIAL TIME STEP SIZE =   87600.00    

 REUSING NON-PARAMETER GHB CELLS FROM LAST STRESS PERIOD

      2 GHB CELLS

 REUSING STREAM SEGMENT DATA FROM LAST STRESS PERIOD



            AREAL INFILTRATION RATE
 READING ON UNIT   19 WITH FORMAT: (10F4.0)            

            1           2           3           4           5           6           7           8           9          10
 ........................................................................................................................
   1    0.000       0.000       0.000       0.000       0.000       0.000       0.000       0.000       0.000       0.000    
   2    0.000       0.000       0.000       0.000       0.000       0.000       0.000       0.000       0.000       0.000    
   3    0.000       0.000       0.000       0.000       0.000       0.000       0.000       0.000       0.000       0.000    
   4    0.000       0.000       0.000       0.000       0.000       0.000       0.000       0.000       0.000       0.000    
   5    0.000       0.000       0.000       0.000       0.000       0.000       0.000       0.000       0.000       0.000    
   6    0.000       0.000       0.000       0.000       0.000       0.000       0.000       0.000       0.000       0.000    
   7    0.000       0.000       0.000       0.000       0.000       0.000       0.000       0.000       0.000       0.000    
   8    0.000       0.000       0.000       0.000       0.000       0.000       0.000       0.000       0.000       0.000    
   9    0.000       0.000       0.000       0.000       0.000       0.000       0.000       0.000       0.000       0.000    
  10    0.000       0.000       0.000       0.000       0.000       0.000       0.000       0.000       0.000       0.000    
  11    0.000       0.000       0.000       0.000       0.000       0.000       0.000       0.000       0.000       0.000    
  12    0.000       0.000       0.000       0.000       0.000       0.000       0.000       0.000       0.000       0.000    
  13    0.000       0.000       0.000       0.000       0.000       0.000       0.000       0.000       0.000       0.000    
  14    0.000       0.000       0.000       0.000       0.000       0.000       0.000       0.000       0.000       0.000    
  15    0.000       0.000       0.000       0.000       0.000       0.000       0.000       0.000       0.000       0.000    

                  ET RATE =  6.500000E-08

 USING ET EXTINCTION DEPTH FROM PREVIOUS STRESS PERIOD. CURRENT PERIOD IS:       9

 USING EXTINCTION WATER CONTENT FROM PREVIOUS STRESS PERIOD. CURRENT PERIOD IS:       9

 PROCESSING AWU STRESS PERIOD DATA

 READING AWU STRESS PERIOD DATA

 READING IRRIGATION STREAM

 READING IRRIGATION WELL

 READING SUPPLEMENTAL WEL

 END PROCESSING AWU STRESS PERIOD DATA OPTIONS
 
 SOLVING FOR HEAD 
                                                   Max.-Head-Change                         Max.-Flux-Residual
  Residual-Control   Outer-Iter.   Inner-Iter.     Column Row Layer    Maximum-Head-Change  Column Row Layer    Maximum-Flux-Residual          L2-NORM 
          0                 1           2             2   13     1      -0.7155513095E-02       2   13    1        -0.4066544382E+00      0.8094918217E+00
          0                 2           2             2   13     1       0.6849086499E-03       2   13    1         0.3928287435E-01      0.7588796858E-01
          0                 3           1             2   13     1      -0.5878228150E-04       2   13    1        -0.3402571692E-02      0.6626116080E-02

    ------------------------------------------------
       NWT REQUIRED            3 OUTER ITERATIONS 
       AND A TOTAL OF          5 INNER ITERATIONS.
    ------------------------------------------------

 NO OUTPUT CONTROL FOR STRESS PERIOD    9   TIME STEP    1
 
 SOLVING FOR HEAD 
                                                   Max.-Head-Change                         Max.-Flux-Residual
  Residual-Control   Outer-Iter.   Inner-Iter.     Column Row Layer    Maximum-Head-Change  Column Row Layer    Maximum-Flux-Residual          L2-NORM 
          0                 1           2             2   13     1      -0.6561065319E-02       2   13    1        -0.3727755115E+00      0.7710298807E+00
          0                 2           2             2   13     1       0.6277977937E-03       2   13    1         0.3599776841E-01      0.7204051632E-01
          0                 3           1             2   13     1      -0.5385032706E-04       2   13    1        -0.3116240423E-02      0.6289135401E-02

    ------------------------------------------------
       NWT REQUIRED            3 OUTER ITERATIONS 
       AND A TOTAL OF          5 INNER ITERATIONS.
    ------------------------------------------------

 NO OUTPUT CONTROL FOR STRESS PERIOD    9   TIME STEP    2
 
 SOLVING FOR HEAD 
                                                   Max.-Head-Change                         Max.-Flux-Residual
  Residual-Control   Outer-Iter.   Inner-Iter.     Column Row Layer    Maximum-Head-Change  Column Row Layer    Maximum-Flux-Residual          L2-NORM 
          0                 1           2             2   13     1      -0.6017857777E-02       2   13    1        -0.3418228160E+00      0.7363804667E+00
          0                 2           2             2   13     1       0.5756156490E-03       2   13    1         0.3299674345E-01      0.6856707716E-01
          0                 3           1             2   13     1      -0.4935685016E-04       2   13    1        -0.2855406892E-02      0.5986705319E-02

    ------------------------------------------------
       NWT REQUIRED            3 OUTER ITERATIONS 
       AND A TOTAL OF          5 INNER ITERATIONS.
    ------------------------------------------------

 NO OUTPUT CONTROL FOR STRESS PERIOD    9   TIME STEP    3
 
 SOLVING FOR HEAD 
                                                   Max.-Head-Change                         Max.-Flux-Residual
  Residual-Control   Outer-Iter.   Inner-Iter.     Column Row Layer    Maximum-Head-Change  Column Row Layer    Maximum-Flux-Residual          L2-NORM 
          0                 1           2             2   13     1      -0.5521233229E-02       2   13    1        -0.3135298713E+00      0.7051395592E+00
          0                 2           2             2   13     1       0.5279372862E-03       2   13    1         0.3025525979E-01      0.6542724494E-01
          0                 3           1             2   13     1      -0.4525184476E-04       2   13    1        -0.2617171764E-02      0.5712306543E-02

    ------------------------------------------------
       NWT REQUIRED            3 OUTER ITERATIONS 
       AND A TOTAL OF          5 INNER ITERATIONS.
    ------------------------------------------------

 NO OUTPUT CONTROL FOR STRESS PERIOD    9   TIME STEP    4
 
 SOLVING FOR HEAD 
                                                   Max.-Head-Change                         Max.-Flux-Residual
  Residual-Control   Outer-Iter.   Inner-Iter.     Column Row Layer    Maximum-Head-Change  Column Row Layer    Maximum-Flux-Residual          L2-NORM 
          0                 1           2             2   13     1      -0.6861056946E-02       2   13    1        -0.3890155490E+00      0.7989564776E+00
          0                 2           2             2   13     1       0.6540593362E-03       2   13    1         0.3742418668E-01      0.7480192798E-01
          0                 3           1             2   13     1      -0.5586268193E-04       2   13    1        -0.3225644596E-02      0.6513596893E-02

    ------------------------------------------------
       NWT REQUIRED            3 OUTER ITERATIONS 
       AND A TOTAL OF          5 INNER ITERATIONS.
    ------------------------------------------------

 NO OUTPUT CONTROL FOR STRESS PERIOD    9   TIME STEP    5
 
 SOLVING FOR HEAD 
                                                   Max.-Head-Change                         Max.-Flux-Residual
  Residual-Control   Outer-Iter.   Inner-Iter.     Column Row Layer    Maximum-Head-Change  Column Row Layer    Maximum-Flux-Residual          L2-NORM 
          0                 1           2             2   13     1      -0.1216155998E-01       2   13    1        -0.6873978465E+00      0.1331796299E+01
          0                 2           2             4   13     1       0.7148017332E-02       4   13    1         0.4159244968E+00      0.7298349856E+00
          0                 3           2             7   13     1      -0.1335799361E-02       7   13    1        -0.7378615367E-01      0.9532317372E-01
          0                 4           1             7   13     1       0.1060015458E-03       7   13    1         0.5908907872E-02      0.7506788398E-02
          0                 5           1             7   13     1      -0.7382264630E-05       7   13    1        -0.4152816775E-03      0.5194040931E-03

    ------------------------------------------------
       NWT REQUIRED            5 OUTER ITERATIONS 
       AND A TOTAL OF          8 INNER ITERATIONS.
    ------------------------------------------------

 NO OUTPUT CONTROL FOR STRESS PERIOD    9   TIME STEP    6
 
 SOLVING FOR HEAD 
                                                   Max.-Head-Change                         Max.-Flux-Residual
  Residual-Control   Outer-Iter.   Inner-Iter.     Column Row Layer    Maximum-Head-Change  Column Row Layer    Maximum-Flux-Residual          L2-NORM 
          0                 1           2             2   13     1      -0.1164802187E-01       2   13    1        -0.6582682776E+00      0.1289355015E+01
          0                 2           2             4   13     1       0.7128901122E-02       4   13    1         0.4148064921E+00      0.7280151832E+00
          0                 3           2             7   13     1      -0.1344727426E-02       7   13    1        -0.7427990574E-01      0.9559093379E-01
          0                 4           1             7   13     1       0.1067089407E-03       7   13    1         0.5948382671E-02      0.7528624442E-02
          0                 5           1             7   13     1      -0.7431985995E-05       7   13    1        -0.4180808451E-03      0.5203562427E-03

    ------------------------------------------------
       NWT REQUIRED            5 OUTER ITERATIONS 
       AND A TOTAL OF          8 INNER ITERATIONS.
    ------------------------------------------------

 NO OUTPUT CONTROL FOR STRESS PERIOD    9   TIME STEP    7
 
 SOLVING FOR HEAD 
                                                   Max.-Head-Change                         Max.-Flux-Residual
  Residual-Control   Outer-Iter.   Inner-Iter.     Column Row Layer    Maximum-Head-Change  Column Row Layer    Maximum-Flux-Residual          L2-NORM 
          0                 1           2             2   13     1      -0.1117814916E-01       2   13    1        -0.6316198823E+00      0.1250512127E+01
          0                 2           2             4   13     1       0.7111679626E-02       4   13    1         0.4138006275E+00      0.7262818655E+00
          0                 3           2             7   13     1      -0.1353113060E-02       7   13    1        -0.7474490275E-01      0.9583295789E-01
          0                 4           2             7   13     1       0.1073754087E-03       7   13    1         0.5985676309E-02      0.7549980791E-02
          0                 5           1             7   13     1      -0.7478329067E-05       7   13    1        -0.4206984484E-03      0.5222508557E-03

    ------------------------------------------------
       NWT REQUIRED            5 OUTER ITERATIONS 
       AND A TOTAL OF          9 INNER ITERATIONS.
    ------------------------------------------------

 NO OUTPUT CONTROL FOR STRESS PERIOD    9   TIME STEP    8
 
 SOLVING FOR HEAD 
                                                   Max.-Head-Change                         Max.-Flux-Residual
  Residual-Control   Outer-Iter.   Inner-Iter.     Column Row Layer    Maximum-Head-Change  Column Row Layer    Maximum-Flux-Residual          L2-NORM 
          0                 1           2             2   13     1      -0.1074824810E-01       2   13    1        -0.6072424435E+00      0.1214950929E+01
          0                 2           2             4   13     1       0.7096128754E-02       4   13    1         0.4128934428E+00      0.7247300218E+00
          0                 3           2             7   13     1      -0.1361044669E-02       7   13    1        -0.7518376846E-01      0.9607341005E-01
          0                 4           2             7   13     1       0.1080159316E-03       7   13    1         0.6021449127E-02      0.7569805255E-02
          0                 5           1             7   13     1      -0.7532925071E-05       7   13    1        -0.4237749729E-03      0.5238524408E-03

    ------------------------------------------------
       NWT REQUIRED            5 OUTER ITERATIONS 
       AND A TOTAL OF          9 INNER ITERATIONS.
    ------------------------------------------------

 NO OUTPUT CONTROL FOR STRESS PERIOD    9   TIME STEP    9
 
 SOLVING FOR HEAD 
                                                   Max.-Head-Change                         Max.-Flux-Residual
  Residual-Control   Outer-Iter.   Inner-Iter.     Column Row Layer    Maximum-Head-Change  Column Row Layer    Maximum-Flux-Residual          L2-NORM 
          0                 1           2             2   13     1      -0.1035472968E-01       2   13    1        -0.5849316613E+00      0.1182323631E+01
          0                 2           2             4   13     1       0.7082026247E-02       4   13    1         0.4120718974E+00      0.7232194668E+00
          0                 3           2             7   13     1      -0.1368536930E-02       7   13    1        -0.7559860754E-01      0.9629974620E-01
          0                 4           2             7   13     1       0.1085982735E-03       7   13    1         0.6053988834E-02      0.7586980526E-02
          0                 5           1             7   13     1      -0.7563228907E-05       7   13    1        -0.4254852124E-03      0.5234297291E-03

    ------------------------------------------------
       NWT REQUIRED            5 OUTER ITERATIONS 
       AND A TOTAL OF          9 INNER ITERATIONS.
    ------------------------------------------------

 NO OUTPUT CONTROL FOR STRESS PERIOD    9   TIME STEP   10
 
 SOLVING FOR HEAD 
                                                   Max.-Head-Change                         Max.-Flux-Residual
  Residual-Control   Outer-Iter.   Inner-Iter.     Column Row Layer    Maximum-Head-Change  Column Row Layer    Maximum-Flux-Residual          L2-NORM 
          0                 1           2             2   13     1      -0.9994419858E-02       2   13    1        -0.5645069789E+00      0.1152332232E+01
          0                 2           2             4   13     1       0.7069205550E-02       4   13    1         0.4113260446E+00      0.7217921013E+00
          0                 3           2             7   13     1      -0.1375649582E-02       7   13    1        -0.7599242693E-01      0.9651585110E-01
          0                 4           2             7   13     1       0.1091639953E-03       7   13    1         0.6085583221E-02      0.7605108528E-02
          0                 5           1             7   13     1      -0.7603286361E-05       7   13    1        -0.4277425173E-03      0.5250492470E-03

    ------------------------------------------------
       NWT REQUIRED            5 OUTER ITERATIONS 
       AND A TOTAL OF          9 INNER ITERATIONS.
    ------------------------------------------------

 NO OUTPUT CONTROL FOR STRESS PERIOD    9   TIME STEP   11
 
 SOLVING FOR HEAD 
                                                   Max.-Head-Change                         Max.-Flux-Residual
  Residual-Control   Outer-Iter.   Inner-Iter.     Column Row Layer    Maximum-Head-Change  Column Row Layer    Maximum-Flux-Residual          L2-NORM 
          0                 1           2             2   13     1      -0.6722250532E-02       2   13    1        -0.3800524896E+00      0.8485908244E+00
          0                 2           2             4   13     1       0.3603190928E-02       4   13    1         0.2094751209E+00      0.3713539589E+00
          0                 3           2             4   13     1      -0.3174963852E-03       4   13    1        -0.1862972911E-01      0.3233296662E-01
          0                 4           1             4   13     1       0.2483604190E-04       4   13    1         0.1470855554E-02      0.2495389719E-02

    ------------------------------------------------
       NWT REQUIRED            4 OUTER ITERATIONS 
       AND A TOTAL OF          7 INNER ITERATIONS.
    ------------------------------------------------

 NO OUTPUT CONTROL FOR STRESS PERIOD    9   TIME STEP   12
 
 SOLVING FOR HEAD 
                                                   Max.-Head-Change                         Max.-Flux-Residual
  Residual-Control   Outer-Iter.   Inner-Iter.     Column Row Layer    Maximum-Head-Change  Column Row Layer    Maximum-Flux-Residual          L2-NORM 
          0                 1           2             6   13     1      -0.3080564232E-02       6   13    1        -0.1643248018E+00      0.4980169051E+00
          0                 2           2             6   13     1       0.3051159226E-03       6   13    1         0.1642492838E-01      0.4431170136E-01
          0                 3           1             6   13     1      -0.2719747436E-04       6   13    1        -0.1477506864E-02      0.3872147217E-02

    ------------------------------------------------
       NWT REQUIRED            3 OUTER ITERATIONS 
       AND A TOTAL OF          5 INNER ITERATIONS.
    ------------------------------------------------

 NO OUTPUT CONTROL FOR STRESS PERIOD    9   TIME STEP   13
 
 SOLVING FOR HEAD 
                                                   Max.-Head-Change                         Max.-Flux-Residual
  Residual-Control   Outer-Iter.   Inner-Iter.     Column Row Layer    Maximum-Head-Change  Column Row Layer    Maximum-Flux-Residual          L2-NORM 
          0                 1           2             3    2     1       0.3013041915E-02       6   13    1        -0.1601101500E+00      0.4894881854E+00
          0                 2           2             6   13     1       0.2973539633E-03       6   13    1         0.1600336180E-01      0.4340947502E-01
          0                 3           1             6   13     1      -0.2650549539E-04       6   13    1        -0.1439580147E-02      0.3790373921E-02

    ------------------------------------------------
       NWT REQUIRED            3 OUTER ITERATIONS 
       AND A TOTAL OF          5 INNER ITERATIONS.
    ------------------------------------------------

 NO OUTPUT CONTROL FOR STRESS PERIOD    9   TIME STEP   14
 
 SOLVING FOR HEAD 
                                                   Max.-Head-Change                         Max.-Flux-Residual
  Residual-Control   Outer-Iter.   Inner-Iter.     Column Row Layer    Maximum-Head-Change  Column Row Layer    Maximum-Flux-Residual          L2-NORM 
          0                 1           2             3    2     1       0.2991193070E-02       3    2    1         0.1563872179E+00      0.4814627633E+00
          0                 2           2             6   13     1       0.2898607005E-03       6   13    1         0.1559647470E-01      0.4255906902E-01
          0                 3           1             6   13     1      -0.2583450128E-04       6   13    1        -0.1402808017E-02      0.3713767597E-02

    ------------------------------------------------
       NWT REQUIRED            3 OUTER ITERATIONS 
       AND A TOTAL OF          5 INNER ITERATIONS.
    ------------------------------------------------

 NO OUTPUT CONTROL FOR STRESS PERIOD    9   TIME STEP   15
 
 SOLVING FOR HEAD 
                                                   Max.-Head-Change                         Max.-Flux-Residual
  Residual-Control   Outer-Iter.   Inner-Iter.     Column Row Layer    Maximum-Head-Change  Column Row Layer    Maximum-Flux-Residual          L2-NORM 
          0                 1           2             3    2     1       0.2969788503E-02       3    2    1         0.1552589631E+00      0.4739027274E+00
          0                 2           2             6   13     1       0.2826190499E-03       6   13    1         0.1520332419E-01      0.4175666003E-01
          0                 3           1             6   13     1      -0.2519349571E-04       6   13    1        -0.1367691765E-02      0.3641282916E-02

    ------------------------------------------------
       NWT REQUIRED            3 OUTER ITERATIONS 
       AND A TOTAL OF          5 INNER ITERATIONS.
    ------------------------------------------------

 NO OUTPUT CONTROL FOR STRESS PERIOD    9   TIME STEP   16
 
 SOLVING FOR HEAD 
                                                   Max.-Head-Change                         Max.-Flux-Residual
  Residual-Control   Outer-Iter.   Inner-Iter.     Column Row Layer    Maximum-Head-Change  Column Row Layer    Maximum-Flux-Residual          L2-NORM 
          0                 1           2             3    2     1       0.2948648586E-02       3    2    1         0.1541446611E+00      0.4667624798E+00
          0                 2           2             6   13     1       0.2756237526E-03       6   13    1         0.1482363625E-01      0.4099591787E-01
          0                 3           1             6   13     1      -0.2456527156E-04       6   13    1        -0.1333278311E-02      0.3572031206E-02

    ------------------------------------------------
       NWT REQUIRED            3 OUTER ITERATIONS 
       AND A TOTAL OF          5 INNER ITERATIONS.
    ------------------------------------------------

 NO OUTPUT CONTROL FOR STRESS PERIOD    9   TIME STEP   17
 
 SOLVING FOR HEAD 
                                                   Max.-Head-Change                         Max.-Flux-Residual
  Residual-Control   Outer-Iter.   Inner-Iter.     Column Row Layer    Maximum-Head-Change  Column Row Layer    Maximum-Flux-Residual          L2-NORM 
          0                 1           2             3    2     1       0.2927853087E-02       3    2    1         0.1530486220E+00      0.4600025400E+00
          0                 2           2             6   13     1       0.2688582597E-03       6   13    1         0.1445650865E-01      0.4027478299E-01
          0                 3           1             6   13     1      -0.2396385683E-04       6   13    1        -0.1300344370E-02      0.3506996937E-02

    ------------------------------------------------
       NWT REQUIRED            3 OUTER ITERATIONS 
       AND A TOTAL OF          5 INNER ITERATIONS.
    ------------------------------------------------

 NO OUTPUT CONTROL FOR STRESS PERIOD    9   TIME STEP   18
 
 SOLVING FOR HEAD 
                                                   Max.-Head-Change                         Max.-Flux-Residual
  Residual-Control   Outer-Iter.   Inner-Iter.     Column Row Layer    Maximum-Head-Change  Column Row Layer    Maximum-Flux-Residual          L2-NORM 
          0                 1           2             5    8     1      -0.5428522098E-02       4   13    1        -0.2946179901E+00      0.9759941161E+00
          0                 2           2             5    8     1       0.5379168022E-03       5    8    1         0.2912053608E-01      0.9412905397E-01
          0                 3           1             5    8     1      -0.4797285022E-04       5    8    1        -0.2620849277E-02      0.8334788009E-02

    ------------------------------------------------
       NWT REQUIRED            3 OUTER ITERATIONS 
       AND A TOTAL OF          5 INNER ITERATIONS.
    ------------------------------------------------

 NO OUTPUT CONTROL FOR STRESS PERIOD    9   TIME STEP   19
 
 SOLVING FOR HEAD 
                                                   Max.-Head-Change                         Max.-Flux-Residual
  Residual-Control   Outer-Iter.   Inner-Iter.     Column Row Layer    Maximum-Head-Change  Column Row Layer    Maximum-Flux-Residual          L2-NORM 
          0                 1           2             4   13     1      -0.8619880337E-02       4   13    1        -0.4930993138E+00      0.1017239129E+01
          0                 2           2             4   13     1       0.3831283934E-02       4   13    1         0.2225581049E+00      0.3915326816E+00
          0                 3           2             7   13     1      -0.5297442423E-03       7   13    1        -0.2923808446E-01      0.4398556727E-01
          0                 4           1             7   13     1       0.4203675373E-04       7   13    1         0.2341388276E-02      0.3443991574E-02

    ------------------------------------------------
       NWT REQUIRED            4 OUTER ITERATIONS 
       AND A TOTAL OF          7 INNER ITERATIONS.
    ------------------------------------------------

 NO OUTPUT CONTROL FOR STRESS PERIOD    9   TIME STEP   20
 
 SOLVING FOR HEAD 
                                                   Max.-Head-Change                         Max.-Flux-Residual
  Residual-Control   Outer-Iter.   Inner-Iter.     Column Row Layer    Maximum-Head-Change  Column Row Layer    Maximum-Flux-Residual          L2-NORM 
          0                 1           2             4   13     1      -0.8138275399E-02       4   13    1        -0.4652946087E+00      0.9779297537E+00
          0                 2           2             4   13     1       0.3814978638E-02       4   13    1         0.2216039982E+00      0.3903960112E+00
          0                 3           2             7   13     1      -0.5421354959E-03       7   13    1        -0.2992373394E-01      0.4434497323E-01
          0                 4           1             7   13     1       0.4302109403E-04       7   13    1         0.2396354977E-02      0.3474332398E-02

    ------------------------------------------------
       NWT REQUIRED            4 OUTER ITERATIONS 
       AND A TOTAL OF          7 INNER ITERATIONS.
    ------------------------------------------------

 NO OUTPUT CONTROL FOR STRESS PERIOD    9   TIME STEP   21
 
 SOLVING FOR HEAD 
                                                   Max.-Head-Change                         Max.-Flux-Residual
  Residual-Control   Outer-Iter.   Inner-Iter.     Column Row Layer    Maximum-Head-Change  Column Row Layer    Maximum-Flux-Residual          L2-NORM 
          0                 1           2             4   13     1      -0.7707052332E-02       4   13    1        -0.4404118601E+00      0.9422147820E+00
          0                 2           2             4   13     1       0.2925757633E-02       4   13    1         0.1698184771E+00      0.3013382801E+00
          0                 3           2             7   13     1      -0.2919865006E-03       7   13    1        -0.1609633548E-01      0.3022811808E-01
          0                 4           1             7   13     1       0.2316912014E-04       7   13    1         0.1288946329E-02      0.2356115083E-02

    ------------------------------------------------
       NWT REQUIRED            4 OUTER ITERATIONS 
       AND A TOTAL OF          7 INNER ITERATIONS.
    ------------------------------------------------

 NO OUTPUT CONTROL FOR STRESS PERIOD    9   TIME STEP   22
 
 SOLVING FOR HEAD 
                                                   Max.-Head-Change                         Max.-Flux-Residual
  Residual-Control   Outer-Iter.   Inner-Iter.     Column Row Layer    Maximum-Head-Change  Column Row Layer    Maximum-Flux-Residual          L2-NORM 
          0                 1           2             4   13     1      -0.7235581865E-02       4   13    1        -0.4132026760E+00      0.9041221613E+00
          0                 2           2             4   13     1       0.2410653378E-02       4   13    1         0.1398321753E+00      0.2502303436E+00
          0                 3           2             4   13     1      -0.2095499945E-03       4   13    1        -0.1226771505E-01      0.2303292886E-01
          0                 4           1             4   13     1       0.1639761507E-04       4   13    1         0.9689100634E-03      0.1786663534E-02

    ------------------------------------------------
       NWT REQUIRED            4 OUTER ITERATIONS 
       AND A TOTAL OF          7 INNER ITERATIONS.
    ------------------------------------------------

 NO OUTPUT CONTROL FOR STRESS PERIOD    9   TIME STEP   23
 
 SOLVING FOR HEAD 
                                                   Max.-Head-Change                         Max.-Flux-Residual
  Residual-Control   Outer-Iter.   Inner-Iter.     Column Row Layer    Maximum-Head-Change  Column Row Layer    Maximum-Flux-Residual          L2-NORM 
          0                 1           2             4   13     1      -0.6764524860E-02       4   13    1        -0.3860214609E+00      0.8664529011E+00
          0                 2           2             4   13     1       0.2396002843E-02       4   13    1         0.1389756335E+00      0.2491914940E+00
          0                 3           2             4   13     1      -0.2079439517E-03       4   13    1        -0.1217298240E-01      0.2320667017E-01
          0                 4           1             4   13     1       0.1624701210E-04       4   13    1         0.9599395162E-03      0.1800524347E-02

    ------------------------------------------------
       NWT REQUIRED            4 OUTER ITERATIONS 
       AND A TOTAL OF          7 INNER ITERATIONS.
    ------------------------------------------------

 NO OUTPUT CONTROL FOR STRESS PERIOD    9   TIME STEP   24
 
 SOLVING FOR HEAD 
                                                   Max.-Head-Change                         Max.-Flux-Residual
  Residual-Control   Outer-Iter.   Inner-Iter.     Column Row Layer    Maximum-Head-Change  Column Row Layer    Maximum-Flux-Residual          L2-NORM 
          0                 1           2             4   13     1      -0.6342819576E-02       4   13    1        -0.3617011033E+00      0.8323732428E+00
          0                 2           2             4   13     1       0.2382603892E-02       4   13    1         0.1381937079E+00      0.2481733557E+00
          0                 3           2             4   13     1      -0.2064819774E-03       4   13    1        -0.1208697439E-01      0.2337902664E-01
          0                 4           1             4   13     1       0.1613357049E-04       4   13    1         0.9531861124E-03      0.1817044541E-02

    ------------------------------------------------
       NWT REQUIRED            4 OUTER ITERATIONS 
       AND A TOTAL OF          7 INNER ITERATIONS.
    ------------------------------------------------

 NO OUTPUT CONTROL FOR STRESS PERIOD    9   TIME STEP   25
 
 SOLVING FOR HEAD 
                                                   Max.-Head-Change                         Max.-Flux-Residual
  Residual-Control   Outer-Iter.   Inner-Iter.     Column Row Layer    Maximum-Head-Change  Column Row Layer    Maximum-Flux-Residual          L2-NORM 
          0                 1           2             4    7     1      -0.2854347272E-01       5    8    1        -0.1512525966E+01      0.3700770246E+01
          0                 2           2             4    7     1       0.2828389631E-02       5    8    1         0.1512507901E+00      0.3694600713E+00
          0                 3           2             4    7     1      -0.2522433565E-03       5    8    1        -0.1361259054E-01      0.3323998499E-01
          0                 4           1             4    7     1       0.2002136213E-04       5    8    1         0.1090368651E-02      0.2662298224E-02

    ------------------------------------------------
       NWT REQUIRED            4 OUTER ITERATIONS 
       AND A TOTAL OF          7 INNER ITERATIONS.
    ------------------------------------------------

 NO OUTPUT CONTROL FOR STRESS PERIOD    9   TIME STEP   26
 
 SOLVING FOR HEAD 
                                                   Max.-Head-Change                         Max.-Flux-Residual
  Residual-Control   Outer-Iter.   Inner-Iter.     Column Row Layer    Maximum-Head-Change  Column Row Layer    Maximum-Flux-Residual          L2-NORM 
          0                 1           2             3    2     1       0.2754664476E-02       4   13    1         0.1477780053E+00      0.5027119474E+00
          0                 2           2             4   13     1      -0.2463509922E-03       4   13    1        -0.1470282921E-01      0.4542933604E-01
          0                 3           1             4   13     1       0.2184222981E-04       4   13    1         0.1315933074E-02      0.3980881827E-02

    ------------------------------------------------
       NWT REQUIRED            3 OUTER ITERATIONS 
       AND A TOTAL OF          5 INNER ITERATIONS.
    ------------------------------------------------

 NO OUTPUT CONTROL FOR STRESS PERIOD    9   TIME STEP   27
 
 SOLVING FOR HEAD 
                                                   Max.-Head-Change                         Max.-Flux-Residual
  Residual-Control   Outer-Iter.   Inner-Iter.     Column Row Layer    Maximum-Head-Change  Column Row Layer    Maximum-Flux-Residual          L2-NORM 
          0                 1           2             3    2     1       0.2736895808E-02       3    2    1         0.1429864576E+00      0.4864996135E+00
          0                 2           2             4   13     1      -0.2163540634E-03       4   13    1        -0.1293564788E-01      0.4370034193E-01
          0                 3           1             4   13     1       0.1919162400E-04       4   13    1         0.1158307793E-02      0.3825717666E-02

    ------------------------------------------------
       NWT REQUIRED            3 OUTER ITERATIONS 
       AND A TOTAL OF          5 INNER ITERATIONS.
    ------------------------------------------------

 NO OUTPUT CONTROL FOR STRESS PERIOD    9   TIME STEP   28
 
 SOLVING FOR HEAD 
                                                   Max.-Head-Change                         Max.-Flux-Residual
  Residual-Control   Outer-Iter.   Inner-Iter.     Column Row Layer    Maximum-Head-Change  Column Row Layer    Maximum-Flux-Residual          L2-NORM 
          0                 1           2             3    2     1       0.2715861854E-02       3    2    1         0.1420606377E+00      0.4446333213E+00
          0                 2           2             5   13     1       0.2219212899E-03       5   13    1         0.1199718264E-01      0.3986810633E-01
          0                 3           1             5   13     1      -0.1977481634E-04       5   13    1        -0.1078883534E-02      0.3502369458E-02

    ------------------------------------------------
       NWT REQUIRED            3 OUTER ITERATIONS 
       AND A TOTAL OF          5 INNER ITERATIONS.
    ------------------------------------------------

 NO OUTPUT CONTROL FOR STRESS PERIOD    9   TIME STEP   29
 
 SOLVING FOR HEAD 
                                                   Max.-Head-Change                         Max.-Flux-Residual
  Residual-Control   Outer-Iter.   Inner-Iter.     Column Row Layer    Maximum-Head-Change  Column Row Layer    Maximum-Flux-Residual          L2-NORM 
          0                 1           2             4   13     1      -0.3952281220E-02       4   13    1        -0.2248147812E+00      0.6197747248E+00
          0                 2           2             4   13     1       0.3864297728E-03       4   13    1         0.2218180754E-01      0.5859164854E-01
          0                 3           1             4   13     1      -0.3396596314E-04       4   13    1        -0.1967502233E-02      0.5142871407E-02

    ------------------------------------------------
       NWT REQUIRED            3 OUTER ITERATIONS 
       AND A TOTAL OF          5 INNER ITERATIONS.
    ------------------------------------------------

 NO OUTPUT CONTROL FOR STRESS PERIOD    9   TIME STEP   30



 STREAM LISTING     PERIOD      9   STEP       30

 LAYER ROW COL. STREAM  RCH.  FLOW INTO     FLOW TO   FLOW OUT OF   OVRLND.     DIRECT     STREAM       STREAM     STREAM     STREAM   STREAMBED  STREAMBED
                SEG.NO.  NO.  STRM. RCH.    AQUIFER    STRM. RCH.    RUNOFF     PRECIP       ET          HEAD       DEPTH      WIDTH   CONDCTNC.   GRADIENT

   1    1    1     1     1    2.1000E+01  2.2592E-01   2.0774E+01  0.000E+00  0.000E+00  0.000E+00  1.09416E+03  1.115E+00  1.220E+01  5.490E-02  1.372E+00
   1    2    2     1     2    2.0774E+01  3.4916E-01   2.0425E+01  0.000E+00  0.000E+00  0.000E+00  1.08917E+03  1.110E+00  1.214E+01  8.495E-02  1.370E+00
   1    3    3     1     3    2.0425E+01  2.9709E-01   2.0128E+01  0.000E+00  0.000E+00  0.000E+00  1.08352E+03  1.105E+00  1.206E+01  7.238E-02  1.368E+00
   1    3    4     1     4    2.0128E+01  2.7299E-01   1.9855E+01  0.000E+00  0.000E+00  0.000E+00  1.07851E+03  1.100E+00  1.200E+01  6.659E-02  1.367E+00
   1    4    5     2     1    1.7855E+01  3.1056E-01   1.7544E+01  0.000E+00  0.000E+00  0.000E+00  1.07292E+03  9.816E-01  1.200E+01  7.800E-02  1.327E+00
   1    5    6     2     2    1.7544E+01  2.3834E-01   1.7306E+01  0.000E+00  0.000E+00  0.000E+00  1.06748E+03  9.724E-01  1.200E+01  6.000E-02  1.324E+00
   1    6    6     2     3    1.7306E+01  2.3786E-01   1.7068E+01  0.000E+00  0.000E+00  0.000E+00  1.06276E+03  9.644E-01  1.200E+01  6.000E-02  1.321E+00
   1    7    6     2     4    1.7068E+01  2.3738E-01   1.6831E+01  0.000E+00  0.000E+00  0.000E+00  1.05803E+03  9.564E-01  1.200E+01  6.000E-02  1.319E+00
   1    8    6     2     5    1.6831E+01  2.3690E-01   1.6594E+01  0.000E+00  0.000E+00  0.000E+00  1.05331E+03  9.483E-01  1.200E+01  6.000E-02  1.316E+00
   1    3    5     3     1    2.0000E+00  2.8252E-01   1.7175E+00  0.000E+00  0.000E+00  0.000E+00  1.07555E+03  1.909E+00  9.636E+00  7.227E-02  1.955E+00
   1    3    6     3     2    1.7175E+00  2.4905E-01   1.4684E+00  0.000E+00  0.000E+00  0.000E+00  1.07264E+03  1.727E+00  8.909E+00  6.682E-02  1.864E+00
   1    3    7     3     3    1.4684E+00  1.9718E-01   1.2712E+00  0.000E+00  0.000E+00  0.000E+00  1.06987E+03  1.555E+00  8.218E+00  5.547E-02  1.777E+00
   1    4    8     3     4    1.2712E+00  2.2567E-01   1.0456E+00  0.000E+00  0.000E+00  0.000E+00  1.06682E+03  1.364E+00  7.455E+00  6.709E-02  1.682E+00
   1    5    8     3     5    1.0456E+00  1.5790E-01   8.8768E-01  0.000E+00  0.000E+00  0.000E+00  1.06362E+03  1.164E+00  6.655E+00  4.991E-02  1.582E+00
   1    6    8     3     6    8.8768E-01  5.5980E-02   8.3170E-01  0.000E+00  0.000E+00  0.000E+00  1.06158E+03  1.036E+00  6.145E+00  1.844E-02  1.518E+00
   1    5   10     4     1    1.0000E+01  9.0919E-02   9.9091E+00  0.000E+00  0.000E+00  0.000E+00  1.07836E+03  6.368E-01  1.000E+01  2.500E-02  1.212E+00
   1    5    9     4     2    9.9091E+00  1.8158E-01   9.7275E+00  0.000E+00  0.000E+00  0.000E+00  1.07154E+03  6.315E-01  1.000E+01  5.000E-02  1.211E+00
   1    6    8     4     3    9.7275E+00  1.2689E-01   9.6006E+00  0.000E+00  0.000E+00  0.000E+00  1.06381E+03  6.256E-01  1.000E+01  3.500E-02  1.209E+00
   1    6    8     5     1    1.0432E+01  2.2686E-01   1.0205E+01  0.000E+00  0.000E+00  0.000E+00  1.05868E+03  6.790E-01  1.542E+01  6.166E-02  1.226E+00
   1    7    7     5     2    1.0205E+01  2.7894E-01   9.9265E+00  0.000E+00  0.000E+00  0.000E+00  1.05417E+03  6.732E-01  1.519E+01  7.594E-02  1.224E+00
   1    8    7     5     3    9.9265E+00  1.9221E-01   9.7343E+00  0.000E+00  0.000E+00  0.000E+00  1.04992E+03  6.676E-01  1.497E+01  5.241E-02  1.223E+00
   1    8    6     5     4    9.7343E+00  1.3577E-01   9.5985E+00  0.000E+00  0.000E+00  0.000E+00  1.04691E+03  6.637E-01  1.482E+01  3.706E-02  1.221E+00
   1    9    6     6     1    2.6192E+01  2.5512E-01   2.5937E+01  0.000E+00  0.000E+00  0.000E+00  1.04398E+03  1.252E+00  1.200E+01  6.000E-02  1.417E+00
   1   10    7     6     2    2.5937E+01  2.5468E-01   2.5683E+01  0.000E+00  0.000E+00  0.000E+00  1.03943E+03  1.245E+00  1.200E+01  6.000E-02  1.415E+00
   1   11    7     6     3    2.5683E+01  2.5424E-01   2.5428E+01  0.000E+00  0.000E+00  0.000E+00  1.03487E+03  1.237E+00  1.200E+01  6.000E-02  1.412E+00
   1   12    7     6     4    2.5428E+01  2.5379E-01   2.5174E+01  0.000E+00  0.000E+00  0.000E+00  1.03032E+03  1.230E+00  1.200E+01  6.000E-02  1.410E+00
   1   13    7     6     5    2.5174E+01  2.5993E-03   2.5172E+01  0.000E+00  0.000E+00  0.000E+00  1.02714E+03  1.226E+00  1.200E+01  2.400E-02  3.610E-02
   1   14    9     7     1    1.5000E+02  1.3375E+00   1.4866E+02  0.000E+00  0.000E+00  0.000E+00  1.03987E+03  2.288E+00  5.529E+01  5.593E-01  7.972E-01
   1   13    8     7     2    1.4866E+02  1.8330E+00   1.4683E+02  0.000E+00  0.000E+00  0.000E+00  1.03478E+03  2.279E+00  5.526E+01  6.148E-01  9.938E-01
   1   13    7     7     3    1.4683E+02  1.4871E+00   1.4534E+02  0.000E+00  0.000E+00  0.000E+00  1.02969E+03  2.270E+00  5.522E+01  5.584E-01  8.876E-01
   1   13    6     8     1    1.7051E+02  9.8153E-01   1.6953E+02  0.000E+00  0.000E+00  0.000E+00  1.02483E+03  2.952E+00  4.281E+01  4.362E-01  7.500E-01
   1   13    5     8     2    1.6953E+02  3.4048E-01   1.6919E+02  0.000E+00  0.000E+00  0.000E+00  1.01857E+03  2.948E+00  4.275E+01  4.356E-01  2.605E-01
   1   13    4     8     3    1.6919E+02 -1.4926E+00   1.7068E+02  0.000E+00  0.000E+00  0.000E+00  1.01233E+03  2.952E+00  4.280E+01  4.362E+00 -1.141E-01
   1   13    3     8     4    1.7068E+02 -2.7213E+00   1.7341E+02  0.000E+00  0.000E+00  0.000E+00  1.00609E+03  2.965E+00  4.300E+01  4.382E+00 -2.070E-01
   1   13    2     8     5    1.7341E+02 -2.0652E+00   1.7547E+02  0.000E+00  0.000E+00  0.000E+00  9.99856E+02  2.981E+00  4.322E+01  4.405E+00 -1.563E-01
   1   13    1     8     6    1.7547E+02 -1.0504E+00   1.7652E+02  0.000E+00  0.000E+00  0.000E+00  9.94866E+02  2.991E+00  4.337E+01  2.652E+00 -1.320E-01
   1    6    8     9     1    0.0000E+00  0.0000E+00   0.0000E+00  0.000E+00  0.000E+00  0.000E+00  1.07850E+03  0.000E+00  4.000E+00  0.000E+00  1.000E+00





UNSATURATED ZONE PACKAGE VOLUMETRIC BUDGET FOR  TIME STEP    30 STRESS PERIOD    9
  ------------------------------------------------------------------------------



     CUMULATIVE VOLUMES      L**3       RATES FOR THIS TIME STEP      L**3/T
     ------------------                 ------------------------

           IN:                                      IN:
           ---                                      ---
        INFILTRATION =    54094344.8203          INFILTRATION =       0.0000E+00

          OUT:                                     OUT:
          ----                                     ----
              UZF ET =    37779997.4319                UZF ET =           4.1992
        UZF RECHARGE =     2209359.5505          UZF RECHARGE =           0.0354

            IN - OUT =    14104987.8379              IN - OUT =          -4.2347

          STORAGE:                                 STORAGE:
          --------                                 --------
      STORAGE CHANGE =    14121577.2308        STORAGE CHANGE =          -4.2346

 PERCENT DISCREPANCY IS DIFFERENCE BETWEEN IN-OUT MINUS CHANGE IN STORAGE
 DIVIDED BY THE AVERAGE OF IN AND OUT TIMES 100

 PERCENT DISCREPANCY =          -0.01     PERCENT DISCREPANCY =          -0.00






1
  VOLUMETRIC BUDGET FOR ENTIRE MODEL AT END OF TIME STEP   30, STRESS PERIOD   9
  ------------------------------------------------------------------------------

     CUMULATIVE VOLUMES      L**3       RATES FOR THIS TIME STEP      L**3/T
     ------------------                 ------------------------

           IN:                                      IN:
           ---                                      ---
    AWU WELLS            =    11104399.0000      AWU WELLS            =           0.0000
    DIVERSION SEGMENTS   =    42916724.0000      DIVERSION SEGMENTS   =           0.0000
    GW IRRIGATION        =           0.0000      GW IRRIGATION        =           0.0000
    SW IRRIGATION        =           0.0000      SW IRRIGATION        =           0.0000
    EFFICIENCY FACTOR GW =           0.0000      EFFICIENCY FACTOR GW =           0.0000
    EFFICIENCY FACTOR SW =           0.0000      EFFICIENCY FACTOR SW =           0.0000

                TOTAL IN =    54021124.0000                  TOTAL IN =           0.0000

          OUT:                                     OUT:
          ----                                     ----
    AWU WELLS            =           0.0000      AWU WELLS            =           0.0000
    DIVERSION SEGMENTS   =           0.0000      DIVERSION SEGMENTS   =           0.0000
    GW IRRIGATION        =    11104399.0000      GW IRRIGATION        =           0.0000
    SW IRRIGATION        =    42916724.0000      SW IRRIGATION        =           0.0000
    EFFICIENCY FACTOR GW =           0.0000      EFFICIENCY FACTOR GW =           0.0000
    EFFICIENCY FACTOR SW =           0.0000      EFFICIENCY FACTOR SW =           0.0000

               TOTAL OUT =    54021124.0000                 TOTAL OUT =           0.0000

                IN - OUT =           0.0000                  IN - OUT =           0.0000

     PERCENT DISCREPANCY =           0.00         PERCENT DISCREPANCY =           0.00



1
  VOLUMETRIC BUDGET FOR ENTIRE MODEL AT END OF TIME STEP   30, STRESS PERIOD   9
  ------------------------------------------------------------------------------

     CUMULATIVE VOLUMES      L**3       RATES FOR THIS TIME STEP      L**3/T
     ------------------                 ------------------------

           IN:                                      IN:
           ---                                      ---
             STORAGE     =    43006684.0000               STORAGE     =           2.7069
       CONSTANT HEAD     =           0.0000         CONSTANT HEAD     =           0.0000
     HEAD DEP BOUNDS     =     6034528.5000       HEAD DEP BOUNDS     =           0.2859
      STREAM LEAKAGE     =   262746352.0000        STREAM LEAKAGE     =          11.8077
        UZF RECHARGE     =     2209359.2500          UZF RECHARGE     =       3.5436E-02
               GW ET     =           0.0000                 GW ET     =           0.0000
     SURFACE LEAKAGE     =           0.0000       SURFACE LEAKAGE     =           0.0000
    AWU WELLS            =           0.0000      AWU WELLS            =           0.0000

                TOTAL IN =   313996896.0000                  TOTAL IN =          14.8359

          OUT:                                     OUT:
          ----                                     ----
             STORAGE     =    51670928.0000               STORAGE     =           1.0985
       CONSTANT HEAD     =           0.0000         CONSTANT HEAD     =           0.0000
     HEAD DEP BOUNDS     =     6086230.0000       HEAD DEP BOUNDS     =           0.2760
      STREAM LEAKAGE     =   195072832.0000        STREAM LEAKAGE     =           7.3295
        UZF RECHARGE     =           0.0000          UZF RECHARGE     =           0.0000
               GW ET     =    50070220.0000                 GW ET     =           6.1305
     SURFACE LEAKAGE     =           0.0000       SURFACE LEAKAGE     =           0.0000
    AWU WELLS            =    11104399.0000      AWU WELLS            =           0.0000

               TOTAL OUT =   314004576.0000                 TOTAL OUT =          14.8344

                IN - OUT =       -7680.0000                  IN - OUT =       1.5383E-03

     PERCENT DISCREPANCY =          -0.00         PERCENT DISCREPANCY =           0.01






         TIME SUMMARY AT END OF TIME STEP   30 IN STRESS PERIOD    9
                    SECONDS     MINUTES      HOURS       DAYS        YEARS
                    -----------------------------------------------------------
   TIME STEP LENGTH  87600.      1460.0      24.333      1.0139     2.77588E-03
 STRESS PERIOD TIME 2.62800E+06  43800.      730.00      30.417     8.32763E-02
         TOTAL TIME 2.11104E+07 3.51840E+05  5864.0      244.33     0.66895    
1
1
                            STRESS PERIOD NO.   10, LENGTH =   2628000.    
                            -----------------------------------------------

                              NUMBER OF TIME STEPS =    30

                               MULTIPLIER FOR DELT =     1.000

                            INITIAL TIME STEP SIZE =   87600.00    

 REUSING NON-PARAMETER GHB CELLS FROM LAST STRESS PERIOD

      2 GHB CELLS

 REUSING STREAM SEGMENT DATA FROM LAST STRESS PERIOD



            AREAL INFILTRATION RATE
 READING ON UNIT   19 WITH FORMAT: (10F4.0)            

            1           2           3           4           5           6           7           8           9          10
 ........................................................................................................................
   1    0.000       0.000       0.000       0.000       0.000       0.000       0.000       0.000       0.000       0.000    
   2    0.000       0.000       0.000       0.000       0.000       0.000       0.000       0.000       0.000       0.000    
   3    0.000       0.000       0.000       0.000       0.000       0.000       0.000       0.000       0.000       0.000    
   4    0.000       0.000       0.000       0.000       0.000       0.000       0.000       0.000       0.000       0.000    
   5    0.000       0.000       0.000       0.000       0.000       0.000       0.000       0.000       0.000       0.000    
   6    0.000       0.000       0.000       0.000       0.000       0.000       0.000       0.000       0.000       0.000    
   7    0.000       0.000       0.000       0.000       0.000       0.000       0.000       0.000       0.000       0.000    
   8    0.000       0.000       0.000       0.000       0.000       0.000       0.000       0.000       0.000       0.000    
   9    0.000       0.000       0.000       0.000       0.000       0.000       0.000       0.000       0.000       0.000    
  10    0.000       0.000       0.000       0.000       0.000       0.000       0.000       0.000       0.000       0.000    
  11    0.000       0.000       0.000       0.000       0.000       0.000       0.000       0.000       0.000       0.000    
  12    0.000       0.000       0.000       0.000       0.000       0.000       0.000       0.000       0.000       0.000    
  13    0.000       0.000       0.000       0.000       0.000       0.000       0.000       0.000       0.000       0.000    
  14    0.000       0.000       0.000       0.000       0.000       0.000       0.000       0.000       0.000       0.000    
  15    0.000       0.000       0.000       0.000       0.000       0.000       0.000       0.000       0.000       0.000    

                  ET RATE =  1.500000E-08

 USING ET EXTINCTION DEPTH FROM PREVIOUS STRESS PERIOD. CURRENT PERIOD IS:      10

 USING EXTINCTION WATER CONTENT FROM PREVIOUS STRESS PERIOD. CURRENT PERIOD IS:      10

 PROCESSING AWU STRESS PERIOD DATA

 READING AWU STRESS PERIOD DATA

 READING IRRIGATION STREAM

 READING IRRIGATION WELL

 READING SUPPLEMENTAL WEL

 END PROCESSING AWU STRESS PERIOD DATA OPTIONS
 
 SOLVING FOR HEAD 
                                                   Max.-Head-Change                         Max.-Flux-Residual
  Residual-Control   Outer-Iter.   Inner-Iter.     Column Row Layer    Maximum-Head-Change  Column Row Layer    Maximum-Flux-Residual          L2-NORM 
          0                 1           2             3   13     1       0.1526682329E-01       3   13    1         0.8712673477E+00      0.1658284079E+01
          0                 2           2             3   13     1      -0.1473003005E-02       3   13    1        -0.8484884684E-01      0.1615899188E+00
          0                 3           2             3   13     1       0.1275291698E-03       3   13    1         0.7414608323E-02      0.1421109968E-01
          0                 4           1             4   13     1      -0.9922321366E-05       4   13    1        -0.5809727609E-03      0.1111823346E-02

    ------------------------------------------------
       NWT REQUIRED            4 OUTER ITERATIONS 
       AND A TOTAL OF          7 INNER ITERATIONS.
    ------------------------------------------------

 NO OUTPUT CONTROL FOR STRESS PERIOD   10   TIME STEP    1
 
 SOLVING FOR HEAD 
                                                   Max.-Head-Change                         Max.-Flux-Residual
  Residual-Control   Outer-Iter.   Inner-Iter.     Column Row Layer    Maximum-Head-Change  Column Row Layer    Maximum-Flux-Residual          L2-NORM 
          0                 1           2             3   13     1       0.1393421035E-01       3   13    1         0.7951002152E+00      0.1550641434E+01
          0                 2           2             3   13     1      -0.1344435782E-02       3   13    1        -0.7743154775E-01      0.1510478132E+00
          0                 3           2             3   13     1       0.1163873613E-03       3   13    1         0.6765799417E-02      0.1328660315E-01
          0                 4           1             4   13     1      -0.9048480486E-05       4   13    1        -0.5294644934E-03      0.1038838240E-02

    ------------------------------------------------
       NWT REQUIRED            4 OUTER ITERATIONS 
       AND A TOTAL OF          7 INNER ITERATIONS.
    ------------------------------------------------

 NO OUTPUT CONTROL FOR STRESS PERIOD   10   TIME STEP    2
 
 SOLVING FOR HEAD 
                                                   Max.-Head-Change                         Max.-Flux-Residual
  Residual-Control   Outer-Iter.   Inner-Iter.     Column Row Layer    Maximum-Head-Change  Column Row Layer    Maximum-Flux-Residual          L2-NORM 
          0                 1           2             5   13     1       0.1048020517E-01       5   13    1         0.5690680887E+00      0.9820248811E+00
          0                 2           2             2   13     1       0.5642445515E-02       2   13    1         0.3212744960E+00      0.5414767637E+00
          0                 3           2             4   13     1      -0.5219760628E-03       4   13    1        -0.3030078541E-01      0.5114420530E-01
          0                 4           1             4   13     1       0.4600733702E-04       4   13    1         0.2695798230E-02      0.4314723970E-02

    ------------------------------------------------
       NWT REQUIRED            4 OUTER ITERATIONS 
       AND A TOTAL OF          7 INNER ITERATIONS.
    ------------------------------------------------

 NO OUTPUT CONTROL FOR STRESS PERIOD   10   TIME STEP    3
 
 SOLVING FOR HEAD 
                                                   Max.-Head-Change                         Max.-Flux-Residual
  Residual-Control   Outer-Iter.   Inner-Iter.     Column Row Layer    Maximum-Head-Change  Column Row Layer    Maximum-Flux-Residual          L2-NORM 
          0                 1           2             5   13     1       0.1006716342E-01       5   13    1         0.5469856049E+00      0.9123832808E+00
          0                 2           2             2   13     1       0.5709972941E-02       2   13    1         0.3250726817E+00      0.5533308234E+00
          0                 3           2             4   13     1      -0.5354136387E-03       4   13    1        -0.3107877292E-01      0.5242192205E-01
          0                 4           1             4   13     1       0.4719283678E-04       4   13    1         0.2765096707E-02      0.4428524160E-02

    ------------------------------------------------
       NWT REQUIRED            4 OUTER ITERATIONS 
       AND A TOTAL OF          7 INNER ITERATIONS.
    ------------------------------------------------

 NO OUTPUT CONTROL FOR STRESS PERIOD   10   TIME STEP    4
 
 SOLVING FOR HEAD 
                                                   Max.-Head-Change                         Max.-Flux-Residual
  Residual-Control   Outer-Iter.   Inner-Iter.     Column Row Layer    Maximum-Head-Change  Column Row Layer    Maximum-Flux-Residual          L2-NORM 
          0                 1           2             5   13     1       0.9666338266E-02       5   13    1         0.5255316443E+00      0.8504569166E+00
          0                 2           2             2   13     1       0.5756138003E-02       2   13    1         0.3276592585E+00      0.5624674622E+00
          0                 3           2             4   13     1      -0.5460130106E-03       4   13    1        -0.3169176899E-01      0.5339026289E-01
          0                 4           1             4   13     1       0.4812593768E-04       4   13    1         0.2819548915E-02      0.4513770706E-02

    ------------------------------------------------
       NWT REQUIRED            4 OUTER ITERATIONS 
       AND A TOTAL OF          7 INNER ITERATIONS.
    ------------------------------------------------

 NO OUTPUT CONTROL FOR STRESS PERIOD   10   TIME STEP    5
 
 SOLVING FOR HEAD 
                                                   Max.-Head-Change                         Max.-Flux-Residual
  Residual-Control   Outer-Iter.   Inner-Iter.     Column Row Layer    Maximum-Head-Change  Column Row Layer    Maximum-Flux-Residual          L2-NORM 
          0                 1           2             5   13     1       0.9277762262E-02       5   13    1         0.5047101463E+00      0.7957739943E+00
          0                 2           2             2   13     1       0.5800286773E-02       2   13    1         0.3301350501E+00      0.5709869312E+00
          0                 3           2             4   13     1      -0.5557428238E-03       4   13    1        -0.3225436301E-01      0.5429353955E-01
          0                 4           1             4   13     1       0.4899392897E-04       4   13    1         0.2870184730E-02      0.4595304984E-02

    ------------------------------------------------
       NWT REQUIRED            4 OUTER ITERATIONS 
       AND A TOTAL OF          7 INNER ITERATIONS.
    ------------------------------------------------

 NO OUTPUT CONTROL FOR STRESS PERIOD   10   TIME STEP    6
 
 SOLVING FOR HEAD 
                                                   Max.-Head-Change                         Max.-Flux-Residual
  Residual-Control   Outer-Iter.   Inner-Iter.     Column Row Layer    Maximum-Head-Change  Column Row Layer    Maximum-Flux-Residual          L2-NORM 
          0                 1           2             5   13     1       0.8901182642E-02       5   13    1         0.4845110195E+00      0.7477963790E+00
          0                 2           2             2   13     1       0.5842522034E-02       4   13    1         0.3333071257E+00      0.5789394678E+00
          0                 3           2             4   13     1      -0.5647196784E-03       4   13    1        -0.3277331562E-01      0.5513704541E-01
          0                 4           1             4   13     1       0.4976948453E-04       4   13    1         0.2915414462E-02      0.4668982789E-02

    ------------------------------------------------
       NWT REQUIRED            4 OUTER ITERATIONS 
       AND A TOTAL OF          7 INNER ITERATIONS.
    ------------------------------------------------

 NO OUTPUT CONTROL FOR STRESS PERIOD   10   TIME STEP    7
 
 SOLVING FOR HEAD 
                                                   Max.-Head-Change                         Max.-Flux-Residual
  Residual-Control   Outer-Iter.   Inner-Iter.     Column Row Layer    Maximum-Head-Change  Column Row Layer    Maximum-Flux-Residual          L2-NORM 
          0                 1           2             5   13     1       0.8536769660E-02       5   13    1         0.4649469504E+00      0.7060384296E+00
          0                 2           2             2   13     1       0.5881356412E-02       4   13    1         0.3381212321E+00      0.5862034642E+00
          0                 3           2             4   13     1      -0.5728257931E-03       4   13    1        -0.3324192726E-01      0.5589902157E-01
          0                 4           1             4   13     1       0.5048447064E-04       4   13    1         0.2957272201E-02      0.4729744349E-02

    ------------------------------------------------
       NWT REQUIRED            4 OUTER ITERATIONS 
       AND A TOTAL OF          7 INNER ITERATIONS.
    ------------------------------------------------

 NO OUTPUT CONTROL FOR STRESS PERIOD   10   TIME STEP    8
 
 SOLVING FOR HEAD 
                                                   Max.-Head-Change                         Max.-Flux-Residual
  Residual-Control   Outer-Iter.   Inner-Iter.     Column Row Layer    Maximum-Head-Change  Column Row Layer    Maximum-Flux-Residual          L2-NORM 
          0                 1           2             5   13     1       0.8184277212E-02       5   13    1         0.4460069264E+00      0.6700288392E+00
          0                 2           2             4   13     1       0.5952374295E-02       4   13    1         0.3421961549E+00      0.5923480078E+00
          0                 3           2             4   13     1      -0.5797269334E-03       4   13    1        -0.3364041454E-01      0.5654196115E-01
          0                 4           1             4   13     1       0.5109261921E-04       4   13    1         0.2992583788E-02      0.4791917340E-02

    ------------------------------------------------
       NWT REQUIRED            4 OUTER ITERATIONS 
       AND A TOTAL OF          7 INNER ITERATIONS.
    ------------------------------------------------

 NO OUTPUT CONTROL FOR STRESS PERIOD   10   TIME STEP    9
 
 SOLVING FOR HEAD 
                                                   Max.-Head-Change                         Max.-Flux-Residual
  Residual-Control   Outer-Iter.   Inner-Iter.     Column Row Layer    Maximum-Head-Change  Column Row Layer    Maximum-Flux-Residual          L2-NORM 
          0                 1           2             1   13     1       0.9027076673E-02       1   13    1         0.4938497424E+00      0.1027832109E+01
          0                 2           2             5   13     1      -0.8889132520E-03       5   13    1        -0.4840286204E-01      0.1000137036E+00
          0                 3           1             5   13     1       0.7924384165E-04       5   13    1         0.4355065345E-02      0.8834873007E-02

    ------------------------------------------------
       NWT REQUIRED            3 OUTER ITERATIONS 
       AND A TOTAL OF          5 INNER ITERATIONS.
    ------------------------------------------------

 NO OUTPUT CONTROL FOR STRESS PERIOD   10   TIME STEP   10
 
 SOLVING FOR HEAD 
                                                   Max.-Head-Change                         Max.-Flux-Residual
  Residual-Control   Outer-Iter.   Inner-Iter.     Column Row Layer    Maximum-Head-Change  Column Row Layer    Maximum-Flux-Residual          L2-NORM 
          0                 1           2             5   13     1       0.8664233873E-02       1   13    1         0.4732386216E+00      0.9283650851E+00
          0                 2           2             5   13     1      -0.8582357474E-03       5   13    1        -0.4673344767E-01      0.8996626499E-01
          0                 3           1             5   13     1       0.7650919595E-04       5   13    1         0.4204863860E-02      0.7928880053E-02

    ------------------------------------------------
       NWT REQUIRED            3 OUTER ITERATIONS 
       AND A TOTAL OF          5 INNER ITERATIONS.
    ------------------------------------------------

 NO OUTPUT CONTROL FOR STRESS PERIOD   10   TIME STEP   11
 
 SOLVING FOR HEAD 
                                                   Max.-Head-Change                         Max.-Flux-Residual
  Residual-Control   Outer-Iter.   Inner-Iter.     Column Row Layer    Maximum-Head-Change  Column Row Layer    Maximum-Flux-Residual          L2-NORM 
          0                 1           2             5   13     1       0.8347058663E-02       5   13    1         0.4504154524E+00      0.8796950931E+00
          0                 2           2             5   13     1      -0.8268173113E-03       5   13    1        -0.4503017177E-01      0.8517125653E-01
          0                 3           1             5   13     1       0.7370940013E-04       5   13    1         0.4051649977E-02      0.7508233250E-02

    ------------------------------------------------
       NWT REQUIRED            3 OUTER ITERATIONS 
       AND A TOTAL OF          5 INNER ITERATIONS.
    ------------------------------------------------

 NO OUTPUT CONTROL FOR STRESS PERIOD   10   TIME STEP   12
 
 SOLVING FOR HEAD 
                                                   Max.-Head-Change                         Max.-Flux-Residual
  Residual-Control   Outer-Iter.   Inner-Iter.     Column Row Layer    Maximum-Head-Change  Column Row Layer    Maximum-Flux-Residual          L2-NORM 
          0                 1           2             5   13     1       0.8040184432E-02       5   13    1         0.4339192892E+00      0.8346961253E+00
          0                 2           2             5   13     1      -0.7964688254E-03       5   13    1        -0.4338104483E-01      0.8078003532E-01
          0                 3           1             5   13     1       0.7100200998E-04       5   13    1         0.3903154898E-02      0.7122307070E-02

    ------------------------------------------------
       NWT REQUIRED            3 OUTER ITERATIONS 
       AND A TOTAL OF          5 INNER ITERATIONS.
    ------------------------------------------------

 NO OUTPUT CONTROL FOR STRESS PERIOD   10   TIME STEP   13
 
 SOLVING FOR HEAD 
                                                   Max.-Head-Change                         Max.-Flux-Residual
  Residual-Control   Outer-Iter.   Inner-Iter.     Column Row Layer    Maximum-Head-Change  Column Row Layer    Maximum-Flux-Residual          L2-NORM 
          0                 1           2             5   13     1       0.7743564504E-02       5   13    1         0.4179674786E+00      0.7930123943E+00
          0                 2           2             5   13     1      -0.7670435395E-03       5   13    1        -0.4178620279E-01      0.7661299621E-01
          0                 3           1             5   13     1       0.6837969374E-04       5   13    1         0.3759683898E-02      0.6757917410E-02

    ------------------------------------------------
       NWT REQUIRED            3 OUTER ITERATIONS 
       AND A TOTAL OF          5 INNER ITERATIONS.
    ------------------------------------------------

 NO OUTPUT CONTROL FOR STRESS PERIOD   10   TIME STEP   14
 
 SOLVING FOR HEAD 
                                                   Max.-Head-Change                         Max.-Flux-Residual
  Residual-Control   Outer-Iter.   Inner-Iter.     Column Row Layer    Maximum-Head-Change  Column Row Layer    Maximum-Flux-Residual          L2-NORM 
          0                 1           2             5   13     1       0.7457065610E-02       5   13    1         0.4025461569E+00      0.7543656386E+00
          0                 2           2             5   13     1      -0.7386620384E-03       5   13    1        -0.4024422806E-01      0.7278742247E-01
          0                 3           1             5   13     1       0.6584999756E-04       5   13    1         0.3620968506E-02      0.6421258305E-02

    ------------------------------------------------
       NWT REQUIRED            3 OUTER ITERATIONS 
       AND A TOTAL OF          5 INNER ITERATIONS.
    ------------------------------------------------

 NO OUTPUT CONTROL FOR STRESS PERIOD   10   TIME STEP   15
 
 SOLVING FOR HEAD 
                                                   Max.-Head-Change                         Max.-Flux-Residual
  Residual-Control   Outer-Iter.   Inner-Iter.     Column Row Layer    Maximum-Head-Change  Column Row Layer    Maximum-Flux-Residual          L2-NORM 
          0                 1           2             5   13     1       0.7180582959E-02       5   13    1         0.3876543778E+00      0.7185138329E+00
          0                 2           2             5   13     1      -0.7112765897E-03       5   13    1        -0.3875539779E-01      0.6923508616E-01
          0                 3           1             5   13     1       0.6340861396E-04       5   13    1         0.3486987089E-02      0.6109532835E-02

    ------------------------------------------------
       NWT REQUIRED            3 OUTER ITERATIONS 
       AND A TOTAL OF          5 INNER ITERATIONS.
    ------------------------------------------------

 NO OUTPUT CONTROL FOR STRESS PERIOD   10   TIME STEP   16
 
 SOLVING FOR HEAD 
                                                   Max.-Head-Change                         Max.-Flux-Residual
  Residual-Control   Outer-Iter.   Inner-Iter.     Column Row Layer    Maximum-Head-Change  Column Row Layer    Maximum-Flux-Residual          L2-NORM 
          0                 1           2             5   13     1       0.6913901523E-02       5   13    1         0.3732821031E+00      0.6852080386E+00
          0                 2           2             5   13     1      -0.6848611489E-03       5   13    1        -0.3731848773E-01      0.6592746923E-01
          0                 3           1             5   13     1       0.6105385800E-04       5   13    1         0.3357701438E-02      0.5817824556E-02

    ------------------------------------------------
       NWT REQUIRED            3 OUTER ITERATIONS 
       AND A TOTAL OF          5 INNER ITERATIONS.
    ------------------------------------------------

 NO OUTPUT CONTROL FOR STRESS PERIOD   10   TIME STEP   17
 
 SOLVING FOR HEAD 
                                                   Max.-Head-Change                         Max.-Flux-Residual
  Residual-Control   Outer-Iter.   Inner-Iter.     Column Row Layer    Maximum-Head-Change  Column Row Layer    Maximum-Flux-Residual          L2-NORM 
          0                 1           2             5   13     1       0.5525504558E-02       5   13    1         0.3029596016E+00      0.5450625850E+00
          0                 2           2             4   13     1       0.6354018985E-02       4   13    1         0.3685044853E+00      0.6342369616E+00
          0                 3           2             4   13     1      -0.5558512760E-03       4   13    1        -0.3253465292E-01      0.5714186591E-01
          0                 4           1             4   13     1       0.4354005544E-04       4   13    1         0.2571915848E-02      0.4520328295E-02

    ------------------------------------------------
       NWT REQUIRED            4 OUTER ITERATIONS 
       AND A TOTAL OF          7 INNER ITERATIONS.
    ------------------------------------------------

 NO OUTPUT CONTROL FOR STRESS PERIOD   10   TIME STEP   18
 
 SOLVING FOR HEAD 
                                                   Max.-Head-Change                         Max.-Flux-Residual
  Residual-Control   Outer-Iter.   Inner-Iter.     Column Row Layer    Maximum-Head-Change  Column Row Layer    Maximum-Flux-Residual          L2-NORM 
          0                 1           2             5   13     1       0.5276786413E-02       5   13    1         0.2895063947E+00      0.5419822547E+00
          0                 2           2             4   13     1       0.6386817074E-02       4   13    1         0.3703932051E+00      0.6375362691E+00
          0                 3           2             4   13     1      -0.5586945694E-03       4   13    1        -0.3269971036E-01      0.5746362842E-01
          0                 4           1             4   13     1       0.4377271756E-04       4   13    1         0.2585552578E-02      0.4546385918E-02

    ------------------------------------------------
       NWT REQUIRED            4 OUTER ITERATIONS 
       AND A TOTAL OF          7 INNER ITERATIONS.
    ------------------------------------------------

 NO OUTPUT CONTROL FOR STRESS PERIOD   10   TIME STEP   19
 
 SOLVING FOR HEAD 
                                                   Max.-Head-Change                         Max.-Flux-Residual
  Residual-Control   Outer-Iter.   Inner-Iter.     Column Row Layer    Maximum-Head-Change  Column Row Layer    Maximum-Flux-Residual          L2-NORM 
          0                 1           2             5   13     1       0.5038084500E-02       5   13    1         0.2765934083E+00      0.5401542033E+00
          0                 2           2             4   13     1       0.6412216042E-02       4   13    1         0.3718530023E+00      0.6401149703E+00
          0                 3           2             4   13     1      -0.5609173678E-03       4   13    1        -0.3282845533E-01      0.5770353918E-01
          0                 4           1             4   13     1       0.4392919993E-04       4   13    1         0.2594654562E-02      0.4565894891E-02

    ------------------------------------------------
       NWT REQUIRED            4 OUTER ITERATIONS 
       AND A TOTAL OF          7 INNER ITERATIONS.
    ------------------------------------------------

 NO OUTPUT CONTROL FOR STRESS PERIOD   10   TIME STEP   20
 
 SOLVING FOR HEAD 
                                                   Max.-Head-Change                         Max.-Flux-Residual
  Residual-Control   Outer-Iter.   Inner-Iter.     Column Row Layer    Maximum-Head-Change  Column Row Layer    Maximum-Flux-Residual          L2-NORM 
          0                 1           2             5   13     1       0.4808628583E-02       5   13    1         0.2641786905E+00      0.5393398770E+00
          0                 2           2             4   13     1       0.6436042197E-02       4   13    1         0.3732221044E+00      0.6425581140E+00
          0                 3           2             4   13     1      -0.5629991362E-03       4   13    1        -0.3294900215E-01      0.5793028092E-01
          0                 4           1             4   13     1       0.4409606418E-04       4   13    1         0.2604387305E-02      0.4585023342E-02

    ------------------------------------------------
       NWT REQUIRED            4 OUTER ITERATIONS 
       AND A TOTAL OF          7 INNER ITERATIONS.
    ------------------------------------------------

 NO OUTPUT CONTROL FOR STRESS PERIOD   10   TIME STEP   21
 
 SOLVING FOR HEAD 
                                                   Max.-Head-Change                         Max.-Flux-Residual
  Residual-Control   Outer-Iter.   Inner-Iter.     Column Row Layer    Maximum-Head-Change  Column Row Layer    Maximum-Flux-Residual          L2-NORM 
          0                 1           2             5   13     1       0.4588312024E-02       5   13    1         0.2522569925E+00      0.5393574106E+00
          0                 2           2             4   13     1       0.6458402469E-02       4   13    1         0.3745066991E+00      0.6448729869E+00
          0                 3           2             4   13     1      -0.5649732326E-03       4   13    1        -0.3306330832E-01      0.5814614500E-01
          0                 4           1             4   13     1       0.4425273272E-04       4   13    1         0.2613539199E-02      0.4602166913E-02

    ------------------------------------------------
       NWT REQUIRED            4 OUTER ITERATIONS 
       AND A TOTAL OF          7 INNER ITERATIONS.
    ------------------------------------------------

 NO OUTPUT CONTROL FOR STRESS PERIOD   10   TIME STEP   22
 
 SOLVING FOR HEAD 
                                                   Max.-Head-Change                         Max.-Flux-Residual
  Residual-Control   Outer-Iter.   Inner-Iter.     Column Row Layer    Maximum-Head-Change  Column Row Layer    Maximum-Flux-Residual          L2-NORM 
          0                 1           2             2   13     1      -0.4457133274E-02       2   13    1        -0.2520274892E+00      0.5400674407E+00
          0                 2           2             4   13     1       0.6477095604E-02       4   13    1         0.3755789767E+00      0.6468328733E+00
          0                 3           2             4   13     1      -0.5666208679E-03       4   13    1        -0.3315800096E-01      0.5832054095E-01
          0                 4           1             4   13     1       0.4438810757E-04       4   13    1         0.2621319197E-02      0.4617025179E-02

    ------------------------------------------------
       NWT REQUIRED            4 OUTER ITERATIONS 
       AND A TOTAL OF          7 INNER ITERATIONS.
    ------------------------------------------------

 NO OUTPUT CONTROL FOR STRESS PERIOD   10   TIME STEP   23
 
 SOLVING FOR HEAD 
                                                   Max.-Head-Change                         Max.-Flux-Residual
  Residual-Control   Outer-Iter.   Inner-Iter.     Column Row Layer    Maximum-Head-Change  Column Row Layer    Maximum-Flux-Residual          L2-NORM 
          0                 1           2             2   13     1      -0.4530975911E-02       2   13    1        -0.2560749150E+00      0.5413129947E+00
          0                 2           2             4   13     1       0.6494169256E-02       4   13    1         0.3765577453E+00      0.6486446690E+00
          0                 3           2             4   13     1      -0.5681492584E-03       4   13    1        -0.3324632277E-01      0.5848139258E-01
          0                 4           1             4   13     1       0.4451081905E-04       4   13    1         0.2628477562E-02      0.4629550176E-02

    ------------------------------------------------
       NWT REQUIRED            4 OUTER ITERATIONS 
       AND A TOTAL OF          7 INNER ITERATIONS.
    ------------------------------------------------

 NO OUTPUT CONTROL FOR STRESS PERIOD   10   TIME STEP   24
 
 SOLVING FOR HEAD 
                                                   Max.-Head-Change                         Max.-Flux-Residual
  Residual-Control   Outer-Iter.   Inner-Iter.     Column Row Layer    Maximum-Head-Change  Column Row Layer    Maximum-Flux-Residual          L2-NORM 
          0                 1           2             5   13     1       0.5098800349E-02       5   13    1         0.2751190452E+00      0.4980736270E+00
          0                 2           2             5   13     1      -0.5050569916E-03       5   13    1        -0.2750402494E-01      0.4717130001E-01
          0                 3           1             5   13     1       0.4502252228E-04       5   13    1         0.2474506599E-02      0.4158279192E-02

    ------------------------------------------------
       NWT REQUIRED            3 OUTER ITERATIONS 
       AND A TOTAL OF          5 INNER ITERATIONS.
    ------------------------------------------------

 NO OUTPUT CONTROL FOR STRESS PERIOD   10   TIME STEP   25
 
 SOLVING FOR HEAD 
                                                   Max.-Head-Change                         Max.-Flux-Residual
  Residual-Control   Outer-Iter.   Inner-Iter.     Column Row Layer    Maximum-Head-Change  Column Row Layer    Maximum-Flux-Residual          L2-NORM 
          0                 1           2             5   13     1       0.4912452274E-02       5   13    1         0.2650614712E+00      0.4792241077E+00
          0                 2           2             5   13     1      -0.4865993955E-03       5   13    1        -0.2649857223E-01      0.4526699510E-01
          0                 3           1             5   13     1       0.4337700509E-04       5   13    1         0.2384037075E-02      0.3989885673E-02

    ------------------------------------------------
       NWT REQUIRED            3 OUTER ITERATIONS 
       AND A TOTAL OF          5 INNER ITERATIONS.
    ------------------------------------------------

 NO OUTPUT CONTROL FOR STRESS PERIOD   10   TIME STEP   26
 
 SOLVING FOR HEAD 
                                                   Max.-Head-Change                         Max.-Flux-Residual
  Residual-Control   Outer-Iter.   Inner-Iter.     Column Row Layer    Maximum-Head-Change  Column Row Layer    Maximum-Flux-Residual          L2-NORM 
          0                 1           2             5   13     1       0.4732995123E-02       5   13    1         0.2553727154E+00      0.4615885591E+00
          0                 2           2             5   13     1      -0.4688254054E-03       5   13    1        -0.2553001875E-01      0.4348193653E-01
          0                 3           1             5   13     1       0.4179580315E-04       5   13    1         0.2297063882E-02      0.3832233942E-02

    ------------------------------------------------
       NWT REQUIRED            3 OUTER ITERATIONS 
       AND A TOTAL OF          5 INNER ITERATIONS.
    ------------------------------------------------

 NO OUTPUT CONTROL FOR STRESS PERIOD   10   TIME STEP   27
 
 SOLVING FOR HEAD 
                                                   Max.-Head-Change                         Max.-Flux-Residual
  Residual-Control   Outer-Iter.   Inner-Iter.     Column Row Layer    Maximum-Head-Change  Column Row Layer    Maximum-Flux-Residual          L2-NORM 
          0                 1           2             5   13     1       0.4560327283E-02       5   13    1         0.2460479033E+00      0.4450785056E+00
          0                 2           2             5   13     1      -0.4517188526E-03       5   13    1        -0.2459759805E-01      0.4180503336E-01
          0                 3           1             5   13     1       0.4027027869E-04       5   13    1         0.2213125739E-02      0.3684552886E-02

    ------------------------------------------------
       NWT REQUIRED            3 OUTER ITERATIONS 
       AND A TOTAL OF          5 INNER ITERATIONS.
    ------------------------------------------------

 NO OUTPUT CONTROL FOR STRESS PERIOD   10   TIME STEP   28
 
 SOLVING FOR HEAD 
                                                   Max.-Head-Change                         Max.-Flux-Residual
  Residual-Control   Outer-Iter.   Inner-Iter.     Column Row Layer    Maximum-Head-Change  Column Row Layer    Maximum-Flux-Residual          L2-NORM 
          0                 1           2             5   13     1       0.4394104942E-02       5   13    1         0.2370691279E+00      0.4296016820E+00
          0                 2           2             5   13     1      -0.4352538266E-03       5   13    1        -0.2369994811E-01      0.4022922986E-01
          0                 3           1             5   13     1       0.3880131706E-04       5   13    1         0.2132312316E-02      0.3543438832E-02

    ------------------------------------------------
       NWT REQUIRED            3 OUTER ITERATIONS 
       AND A TOTAL OF          5 INNER ITERATIONS.
    ------------------------------------------------

 NO OUTPUT CONTROL FOR STRESS PERIOD   10   TIME STEP   29
 
 SOLVING FOR HEAD 
                                                   Max.-Head-Change                         Max.-Flux-Residual
  Residual-Control   Outer-Iter.   Inner-Iter.     Column Row Layer    Maximum-Head-Change  Column Row Layer    Maximum-Flux-Residual          L2-NORM 
          0                 1           2             5   13     1       0.3839949227E-02       5   13    1         0.2087838457E+00      0.3718637070E+00
          0                 2           2             7   13     1      -0.4161848853E-03       7   13    1        -0.2278572337E-01      0.4159455528E-01
          0                 3           1             7   13     1       0.3710156202E-04       7   13    1         0.2049909061E-02      0.3708364174E-02

    ------------------------------------------------
       NWT REQUIRED            3 OUTER ITERATIONS 
       AND A TOTAL OF          5 INNER ITERATIONS.
    ------------------------------------------------

 NO OUTPUT CONTROL FOR STRESS PERIOD   10   TIME STEP   30



 STREAM LISTING     PERIOD     10   STEP       30

 LAYER ROW COL. STREAM  RCH.  FLOW INTO     FLOW TO   FLOW OUT OF   OVRLND.     DIRECT     STREAM       STREAM     STREAM     STREAM   STREAMBED  STREAMBED
                SEG.NO.  NO.  STRM. RCH.    AQUIFER    STRM. RCH.    RUNOFF     PRECIP       ET          HEAD       DEPTH      WIDTH   CONDCTNC.   GRADIENT

   1    1    1     1     1    1.4863E+01  1.8611E-01   1.4677E+01  0.000E+00  0.000E+00  0.000E+00  1.09406E+03  1.008E+00  1.032E+01  4.644E-02  1.336E+00
   1    2    2     1     2    1.4677E+01  2.8686E-01   1.4390E+01  0.000E+00  0.000E+00  0.000E+00  1.08906E+03  1.003E+00  1.024E+01  7.166E-02  1.334E+00
   1    3    3     1     3    1.4390E+01  2.4331E-01   1.4147E+01  0.000E+00  0.000E+00  0.000E+00  1.08342E+03  9.976E-01  1.014E+01  6.087E-02  1.333E+00
   1    3    4     1     4    1.4147E+01  2.2296E-01   1.3924E+01  0.000E+00  0.000E+00  0.000E+00  1.07840E+03  9.928E-01  1.006E+01  5.584E-02  1.331E+00
   1    4    5     2     1    1.1924E+01  2.9396E-01   1.1630E+01  0.000E+00  0.000E+00  0.000E+00  1.07270E+03  7.687E-01  1.200E+01  7.800E-02  1.256E+00
   1    5    6     2     2    1.1630E+01  2.2551E-01   1.1404E+01  0.000E+00  0.000E+00  0.000E+00  1.06727E+03  7.585E-01  1.200E+01  6.000E-02  1.253E+00
   1    6    6     2     3    1.1404E+01  2.2497E-01   1.1179E+01  0.000E+00  0.000E+00  0.000E+00  1.06254E+03  7.496E-01  1.200E+01  6.000E-02  1.250E+00
   1    7    6     2     4    1.1179E+01  2.2443E-01   1.0955E+01  0.000E+00  0.000E+00  0.000E+00  1.05782E+03  7.406E-01  1.200E+01  6.000E-02  1.247E+00
   1    8    6     2     5    1.0955E+01  2.2389E-01   1.0731E+01  0.000E+00  0.000E+00  0.000E+00  1.05309E+03  7.315E-01  1.200E+01  6.000E-02  1.244E+00
   1    3    5     3     1    2.0000E+00  2.8252E-01   1.7175E+00  0.000E+00  0.000E+00  0.000E+00  1.07555E+03  1.909E+00  9.636E+00  7.227E-02  1.955E+00
   1    3    6     3     2    1.7175E+00  2.4905E-01   1.4684E+00  0.000E+00  0.000E+00  0.000E+00  1.07264E+03  1.727E+00  8.909E+00  6.682E-02  1.864E+00
   1    3    7     3     3    1.4684E+00  1.9718E-01   1.2712E+00  0.000E+00  0.000E+00  0.000E+00  1.06987E+03  1.555E+00  8.218E+00  5.547E-02  1.777E+00
   1    4    8     3     4    1.2712E+00  2.2567E-01   1.0456E+00  0.000E+00  0.000E+00  0.000E+00  1.06682E+03  1.364E+00  7.455E+00  6.709E-02  1.682E+00
   1    5    8     3     5    1.0456E+00  1.5790E-01   8.8768E-01  0.000E+00  0.000E+00  0.000E+00  1.06362E+03  1.164E+00  6.655E+00  4.991E-02  1.582E+00
   1    6    8     3     6    8.8768E-01  5.5980E-02   8.3170E-01  0.000E+00  0.000E+00  0.000E+00  1.06158E+03  1.036E+00  6.145E+00  1.844E-02  1.518E+00
   1    5   10     4     1    1.0000E+01  9.0919E-02   9.9091E+00  0.000E+00  0.000E+00  0.000E+00  1.07836E+03  6.368E-01  1.000E+01  2.500E-02  1.212E+00
   1    5    9     4     2    9.9091E+00  1.8158E-01   9.7275E+00  0.000E+00  0.000E+00  0.000E+00  1.07154E+03  6.315E-01  1.000E+01  5.000E-02  1.211E+00
   1    6    8     4     3    9.7275E+00  1.2689E-01   9.6006E+00  0.000E+00  0.000E+00  0.000E+00  1.06381E+03  6.256E-01  1.000E+01  3.500E-02  1.209E+00
   1    6    8     5     1    1.0432E+01  2.2686E-01   1.0205E+01  0.000E+00  0.000E+00  0.000E+00  1.05868E+03  6.790E-01  1.542E+01  6.166E-02  1.226E+00
   1    7    7     5     2    1.0205E+01  2.7894E-01   9.9265E+00  0.000E+00  0.000E+00  0.000E+00  1.05417E+03  6.732E-01  1.519E+01  7.594E-02  1.224E+00
   1    8    7     5     3    9.9265E+00  1.9221E-01   9.7343E+00  0.000E+00  0.000E+00  0.000E+00  1.04992E+03  6.676E-01  1.497E+01  5.241E-02  1.223E+00
   1    8    6     5     4    9.7343E+00  1.3577E-01   9.5985E+00  0.000E+00  0.000E+00  0.000E+00  1.04691E+03  6.637E-01  1.482E+01  3.706E-02  1.221E+00
   1    9    6     6     1    2.0330E+01  2.4448E-01   2.0085E+01  0.000E+00  0.000E+00  0.000E+00  1.04380E+03  1.075E+00  1.200E+01  6.000E-02  1.358E+00
   1   10    7     6     2    2.0085E+01  2.4401E-01   1.9841E+01  0.000E+00  0.000E+00  0.000E+00  1.03925E+03  1.067E+00  1.200E+01  6.000E-02  1.356E+00
   1   11    7     6     3    1.9841E+01  2.4354E-01   1.9597E+01  0.000E+00  0.000E+00  0.000E+00  1.03470E+03  1.059E+00  1.200E+01  6.000E-02  1.353E+00
   1   12    7     6     4    1.9597E+01  2.4307E-01   1.9354E+01  0.000E+00  0.000E+00  0.000E+00  1.03014E+03  1.051E+00  1.200E+01  6.000E-02  1.350E+00
   1   13    7     6     5    1.9354E+01 -2.2332E-02   1.9377E+01  0.000E+00  0.000E+00  0.000E+00  1.02696E+03  1.048E+00  1.200E+01  2.400E-01 -3.102E-02
   1   14    9     7     1    1.5000E+02  1.3376E+00   1.4866E+02  0.000E+00  0.000E+00  0.000E+00  1.03987E+03  2.288E+00  5.529E+01  5.593E-01  7.972E-01
   1   13    8     7     2    1.4866E+02  1.8354E+00   1.4683E+02  0.000E+00  0.000E+00  0.000E+00  1.03478E+03  2.279E+00  5.526E+01  6.148E-01  9.952E-01
   1   13    7     7     3    1.4683E+02  1.4743E+00   1.4535E+02  0.000E+00  0.000E+00  0.000E+00  1.02969E+03  2.270E+00  5.522E+01  5.585E-01  8.800E-01
   1   13    6     8     1    1.6473E+02  9.2823E-01   1.6380E+02  0.000E+00  0.000E+00  0.000E+00  1.02479E+03  2.914E+00  4.226E+01  4.306E-01  7.185E-01
   1   13    5     8     2    1.6380E+02  2.3057E-01   1.6357E+02  0.000E+00  0.000E+00  0.000E+00  1.01854E+03  2.911E+00  4.220E+01  4.301E-01  1.787E-01
   1   13    4     8     3    1.6357E+02 -2.2596E+00   1.6583E+02  0.000E+00  0.000E+00  0.000E+00  1.01229E+03  2.917E+00  4.230E+01  4.311E+00 -1.747E-01
   1   13    3     8     4    1.6583E+02 -3.4598E+00   1.6929E+02  0.000E+00  0.000E+00  0.000E+00  1.00606E+03  2.936E+00  4.258E+01  4.339E+00 -2.658E-01
   1   13    2     8     5    1.6929E+02 -2.4513E+00   1.7174E+02  0.000E+00  0.000E+00  0.000E+00  9.99831E+02  2.956E+00  4.286E+01  4.367E+00 -1.871E-01
   1   13    1     8     6    1.7174E+02 -1.6278E+00   1.7337E+02  0.000E+00  0.000E+00  0.000E+00  9.94844E+02  2.969E+00  4.305E+01  2.632E+00 -2.062E-01
   1    6    8     9     1    0.0000E+00  0.0000E+00   0.0000E+00  0.000E+00  0.000E+00  0.000E+00  1.07850E+03  0.000E+00  4.000E+00  0.000E+00  1.000E+00





UNSATURATED ZONE PACKAGE VOLUMETRIC BUDGET FOR  TIME STEP    30 STRESS PERIOD   10
  ------------------------------------------------------------------------------



     CUMULATIVE VOLUMES      L**3       RATES FOR THIS TIME STEP      L**3/T
     ------------------                 ------------------------

           IN:                                      IN:
           ---                                      ---
        INFILTRATION =    56192156.8887          INFILTRATION =       0.0000E+00

          OUT:                                     OUT:
          ----                                     ----
              UZF ET =    41357701.7307                UZF ET =           1.5445
        UZF RECHARGE =     2292676.5694          UZF RECHARGE =           0.0259

            IN - OUT =    12541778.5885              IN - OUT =          -1.5704

          STORAGE:                                 STORAGE:
          --------                                 --------
      STORAGE CHANGE =    12558864.5931        STORAGE CHANGE =          -1.5704

 PERCENT DISCREPANCY IS DIFFERENCE BETWEEN IN-OUT MINUS CHANGE IN STORAGE
 DIVIDED BY THE AVERAGE OF IN AND OUT TIMES 100

 PERCENT DISCREPANCY =          -0.01     PERCENT DISCREPANCY =          -0.00






1
  VOLUMETRIC BUDGET FOR ENTIRE MODEL AT END OF TIME STEP   30, STRESS PERIOD  10
  ------------------------------------------------------------------------------

     CUMULATIVE VOLUMES      L**3       RATES FOR THIS TIME STEP      L**3/T
     ------------------                 ------------------------

           IN:                                      IN:
           ---                                      ---
    AWU WELLS            =    11225853.0000      AWU WELLS            =           0.0000
    DIVERSION SEGMENTS   =    44893080.0000      DIVERSION SEGMENTS   =           0.0000
    GW IRRIGATION        =           0.0000      GW IRRIGATION        =           0.0000
    SW IRRIGATION        =           0.0000      SW IRRIGATION        =           0.0000
    EFFICIENCY FACTOR GW =           0.0000      EFFICIENCY FACTOR GW =           0.0000
    EFFICIENCY FACTOR SW =           0.0000      EFFICIENCY FACTOR SW =           0.0000

                TOTAL IN =    56118932.0000                  TOTAL IN =           0.0000

          OUT:                                     OUT:
          ----                                     ----
    AWU WELLS            =           0.0000      AWU WELLS            =           0.0000
    DIVERSION SEGMENTS   =           0.0000      DIVERSION SEGMENTS   =           0.0000
    GW IRRIGATION        =    11225853.0000      GW IRRIGATION        =           0.0000
    SW IRRIGATION        =    44893080.0000      SW IRRIGATION        =           0.0000
    EFFICIENCY FACTOR GW =           0.0000      EFFICIENCY FACTOR GW =           0.0000
    EFFICIENCY FACTOR SW =           0.0000      EFFICIENCY FACTOR SW =           0.0000

               TOTAL OUT =    56118932.0000                 TOTAL OUT =           0.0000

                IN - OUT =           0.0000                  IN - OUT =           0.0000

     PERCENT DISCREPANCY =           0.00         PERCENT DISCREPANCY =           0.00



1
  VOLUMETRIC BUDGET FOR ENTIRE MODEL AT END OF TIME STEP   30, STRESS PERIOD  10
  ------------------------------------------------------------------------------

     CUMULATIVE VOLUMES      L**3       RATES FOR THIS TIME STEP      L**3/T
     ------------------                 ------------------------

           IN:                                      IN:
           ---                                      ---
             STORAGE     =    45837388.0000               STORAGE     =           1.1219
       CONSTANT HEAD     =           0.0000         CONSTANT HEAD     =           0.0000
     HEAD DEP BOUNDS     =     6785820.5000       HEAD DEP BOUNDS     =           0.2859
      STREAM LEAKAGE     =   293517440.0000        STREAM LEAKAGE     =          11.3148
        UZF RECHARGE     =     2292675.5000          UZF RECHARGE     =       2.5937E-02
               GW ET     =           0.0000                 GW ET     =           0.0000
     SURFACE LEAKAGE     =           0.0000       SURFACE LEAKAGE     =           0.0000
    AWU WELLS            =           0.0000      AWU WELLS            =           0.0000

                TOTAL IN =   348433312.0000                  TOTAL IN =          12.7485

          OUT:                                     OUT:
          ----                                     ----
             STORAGE     =    58339240.0000               STORAGE     =           1.1656
       CONSTANT HEAD     =           0.0000         CONSTANT HEAD     =           0.0000
     HEAD DEP BOUNDS     =     6824209.5000       HEAD DEP BOUNDS     =           0.2836
      STREAM LEAKAGE     =   218156624.0000        STREAM LEAKAGE     =           9.8208
        UZF RECHARGE     =           0.0000          UZF RECHARGE     =           0.0000
               GW ET     =    53896720.0000                 GW ET     =           1.4784
     SURFACE LEAKAGE     =           0.0000       SURFACE LEAKAGE     =           0.0000
    AWU WELLS            =    11225853.0000      AWU WELLS            =           0.0000

               TOTAL OUT =   348442624.0000                 TOTAL OUT =          12.7484

                IN - OUT =       -9312.0000                  IN - OUT =       9.6321E-05

     PERCENT DISCREPANCY =          -0.00         PERCENT DISCREPANCY =           0.00






         TIME SUMMARY AT END OF TIME STEP   30 IN STRESS PERIOD   10
                    SECONDS     MINUTES      HOURS       DAYS        YEARS
                    -----------------------------------------------------------
   TIME STEP LENGTH  87600.      1460.0      24.333      1.0139     2.77588E-03
 STRESS PERIOD TIME 2.62800E+06  43800.      730.00      30.417     8.32763E-02
         TOTAL TIME 2.37384E+07 3.95640E+05  6594.0      274.75     0.75222    
1
1
                            STRESS PERIOD NO.   11, LENGTH =   2628000.    
                            -----------------------------------------------

                              NUMBER OF TIME STEPS =    30

                               MULTIPLIER FOR DELT =     1.000

                            INITIAL TIME STEP SIZE =   87600.00    

 REUSING NON-PARAMETER GHB CELLS FROM LAST STRESS PERIOD

      2 GHB CELLS

 REUSING STREAM SEGMENT DATA FROM LAST STRESS PERIOD



            AREAL INFILTRATION RATE
 READING ON UNIT   19 WITH FORMAT: (10F4.0)            

            1           2           3           4           5           6           7           8           9          10
 ........................................................................................................................
   1    0.000       0.000       0.000       0.000       0.000       0.000       0.000       0.000       0.000       0.000    
   2    0.000       0.000       0.000       0.000       0.000       0.000       0.000       0.000       0.000       0.000    
   3    0.000       0.000       0.000       0.000       0.000       0.000       0.000       0.000       0.000       0.000    
   4    0.000       0.000       0.000       0.000       0.000       0.000       0.000       0.000       0.000       0.000    
   5    0.000       0.000       0.000       0.000       0.000       0.000       0.000       0.000       0.000       0.000    
   6    0.000       0.000       0.000       0.000       0.000       0.000       0.000       0.000       0.000       0.000    
   7    0.000       0.000       0.000       0.000       0.000       0.000       0.000       0.000       0.000       0.000    
   8    0.000       0.000       0.000       0.000       0.000       0.000       0.000       0.000       0.000       0.000    
   9    0.000       0.000       0.000       0.000       0.000       0.000       0.000       0.000       0.000       0.000    
  10    0.000       0.000       0.000       0.000       0.000       0.000       0.000       0.000       0.000       0.000    
  11    0.000       0.000       0.000       0.000       0.000       0.000       0.000       0.000       0.000       0.000    
  12    0.000       0.000       0.000       0.000       0.000       0.000       0.000       0.000       0.000       0.000    
  13    0.000       0.000       0.000       0.000       0.000       0.000       0.000       0.000       0.000       0.000    
  14    0.000       0.000       0.000       0.000       0.000       0.000       0.000       0.000       0.000       0.000    
  15    0.000       0.000       0.000       0.000       0.000       0.000       0.000       0.000       0.000       0.000    

                  ET RATE =  1.000000E-09

 USING ET EXTINCTION DEPTH FROM PREVIOUS STRESS PERIOD. CURRENT PERIOD IS:      11

 USING EXTINCTION WATER CONTENT FROM PREVIOUS STRESS PERIOD. CURRENT PERIOD IS:      11

 PROCESSING AWU STRESS PERIOD DATA

 READING AWU STRESS PERIOD DATA

 READING IRRIGATION STREAM

 READING IRRIGATION WELL

 READING SUPPLEMENTAL WEL

 END PROCESSING AWU STRESS PERIOD DATA OPTIONS
 
 SOLVING FOR HEAD 
                                                   Max.-Head-Change                         Max.-Flux-Residual
  Residual-Control   Outer-Iter.   Inner-Iter.     Column Row Layer    Maximum-Head-Change  Column Row Layer    Maximum-Flux-Residual          L2-NORM 
          0                 1           2             5   13     1       0.7762613835E-02       5   13    1         0.4200809215E+00      0.6710072853E+00
          0                 2           2             5   13     1      -0.7690277152E-03       5   13    1        -0.4200052590E-01      0.6573391058E-01
          0                 3           1             5   13     1       0.6856667898E-04       5   13    1         0.3779308283E-02      0.5878666920E-02

    ------------------------------------------------
       NWT REQUIRED            3 OUTER ITERATIONS 
       AND A TOTAL OF          5 INNER ITERATIONS.
    ------------------------------------------------

 NO OUTPUT CONTROL FOR STRESS PERIOD   11   TIME STEP    1
 
 SOLVING FOR HEAD 
                                                   Max.-Head-Change                         Max.-Flux-Residual
  Residual-Control   Outer-Iter.   Inner-Iter.     Column Row Layer    Maximum-Head-Change  Column Row Layer    Maximum-Flux-Residual          L2-NORM 
          0                 1           2             5   13     1       0.7458781227E-02       5   13    1         0.4035358946E+00      0.6468076521E+00
          0                 2           2             5   13     1      -0.7389302232E-03       5   13    1        -0.4034646114E-01      0.6332570952E-01
          0                 3           1             5   13     1       0.6588335260E-04       5   13    1         0.3630480355E-02      0.5663027009E-02

    ------------------------------------------------
       NWT REQUIRED            3 OUTER ITERATIONS 
       AND A TOTAL OF          5 INNER ITERATIONS.
    ------------------------------------------------

 NO OUTPUT CONTROL FOR STRESS PERIOD   11   TIME STEP    2
 
 SOLVING FOR HEAD 
                                                   Max.-Head-Change                         Max.-Flux-Residual
  Residual-Control   Outer-Iter.   Inner-Iter.     Column Row Layer    Maximum-Head-Change  Column Row Layer    Maximum-Flux-Residual          L2-NORM 
          0                 1           2             5   13     1       0.7168585003E-02       5   13    1         0.3877382521E+00      0.6241394240E+00
          0                 2           2             5   13     1      -0.7101764272E-03       5   13    1        -0.3876673360E-01      0.6106694447E-01
          0                 3           1             5   13     1       0.6331994969E-04       5   13    1         0.3488342037E-02      0.5460582635E-02

    ------------------------------------------------
       NWT REQUIRED            3 OUTER ITERATIONS 
       AND A TOTAL OF          5 INNER ITERATIONS.
    ------------------------------------------------

 NO OUTPUT CONTROL FOR STRESS PERIOD   11   TIME STEP    3
 
 SOLVING FOR HEAD 
                                                   Max.-Head-Change                         Max.-Flux-Residual
  Residual-Control   Outer-Iter.   Inner-Iter.     Column Row Layer    Maximum-Head-Change  Column Row Layer    Maximum-Flux-Residual          L2-NORM 
          0                 1           2             5   13     1       0.6891429208E-02       5   13    1         0.3726550358E+00      0.6028851380E+00
          0                 2           2             5   13     1      -0.6827185670E-03       5   13    1        -0.3725866117E-01      0.5894967091E-01
          0                 3           1             5   13     1       0.6087271206E-04       5   13    1         0.3352680564E-02      0.5270772452E-02

    ------------------------------------------------
       NWT REQUIRED            3 OUTER ITERATIONS 
       AND A TOTAL OF          5 INNER ITERATIONS.
    ------------------------------------------------

 NO OUTPUT CONTROL FOR STRESS PERIOD   11   TIME STEP    4
 
 SOLVING FOR HEAD 
                                                   Max.-Head-Change                         Max.-Flux-Residual
  Residual-Control   Outer-Iter.   Inner-Iter.     Column Row Layer    Maximum-Head-Change  Column Row Layer    Maximum-Flux-Residual          L2-NORM 
          0                 1           2             5   13     1       0.6626625341E-02       5   13    1         0.3582482350E+00      0.5829174643E+00
          0                 2           2             5   13     1      -0.6564821379E-03       5   13    1        -0.3581807758E-01      0.5696095600E-01
          0                 3           1             5   13     1       0.5851156827E-04       5   13    1         0.3222879717E-02      0.5080866329E-02

    ------------------------------------------------
       NWT REQUIRED            3 OUTER ITERATIONS 
       AND A TOTAL OF          5 INNER ITERATIONS.
    ------------------------------------------------

 NO OUTPUT CONTROL FOR STRESS PERIOD   11   TIME STEP    5
 
 SOLVING FOR HEAD 
                                                   Max.-Head-Change                         Max.-Flux-Residual
  Residual-Control   Outer-Iter.   Inner-Iter.     Column Row Layer    Maximum-Head-Change  Column Row Layer    Maximum-Flux-Residual          L2-NORM 
          0                 1           2             5   13     1       0.6373515755E-02       5   13    1         0.3444813991E+00      0.5641353101E+00
          0                 2           2             5   13     1      -0.6314064539E-03       5   13    1        -0.3444162187E-01      0.5509128662E-01
          0                 3           1             5   13     1       0.5629560860E-04       5   13    1         0.3099096058E-02      0.4924842283E-02

    ------------------------------------------------
       NWT REQUIRED            3 OUTER ITERATIONS 
       AND A TOTAL OF          5 INNER ITERATIONS.
    ------------------------------------------------

 NO OUTPUT CONTROL FOR STRESS PERIOD   11   TIME STEP    6
 
 SOLVING FOR HEAD 
                                                   Max.-Head-Change                         Max.-Flux-Residual
  Residual-Control   Outer-Iter.   Inner-Iter.     Column Row Layer    Maximum-Head-Change  Column Row Layer    Maximum-Flux-Residual          L2-NORM 
          0                 1           2             5   13     1       0.6131530660E-02       5   13    1         0.3313233897E+00      0.5464294056E+00
          0                 2           2             5   13     1      -0.6074339631E-03       5   13    1        -0.3312603869E-01      0.5333054689E-01
          0                 3           1             5   13     1       0.5415811191E-04       5   13    1         0.2980668007E-02      0.4768174002E-02

    ------------------------------------------------
       NWT REQUIRED            3 OUTER ITERATIONS 
       AND A TOTAL OF          5 INNER ITERATIONS.
    ------------------------------------------------

 NO OUTPUT CONTROL FOR STRESS PERIOD   11   TIME STEP    7
 
 SOLVING FOR HEAD 
                                                   Max.-Head-Change                         Max.-Flux-Residual
  Residual-Control   Outer-Iter.   Inner-Iter.     Column Row Layer    Maximum-Head-Change  Column Row Layer    Maximum-Flux-Residual          L2-NORM 
          0                 1           2             5   13     1       0.5900074427E-02       5   13    1         0.3187414121E+00      0.5297255484E+00
          0                 2           2             5   13     1      -0.5845003827E-03       5   13    1        -0.3186791201E-01      0.5166796494E-01
          0                 3           1             5   13     1       0.5211343789E-04       5   13    1         0.2867509432E-02      0.4618225924E-02

    ------------------------------------------------
       NWT REQUIRED            3 OUTER ITERATIONS 
       AND A TOTAL OF          5 INNER ITERATIONS.
    ------------------------------------------------

 NO OUTPUT CONTROL FOR STRESS PERIOD   11   TIME STEP    8
 
 SOLVING FOR HEAD 
                                                   Max.-Head-Change                         Max.-Flux-Residual
  Residual-Control   Outer-Iter.   Inner-Iter.     Column Row Layer    Maximum-Head-Change  Column Row Layer    Maximum-Flux-Residual          L2-NORM 
          0                 1           2             5   13     1       0.5678737081E-02       5   13    1         0.3067125133E+00      0.5139401505E+00
          0                 2           2             5   13     1      -0.5625754729E-03       5   13    1        -0.3066537254E-01      0.5009948101E-01
          0                 3           1             5   13     1       0.5015918641E-04       5   13    1         0.2759328705E-02      0.4477134405E-02

    ------------------------------------------------
       NWT REQUIRED            3 OUTER ITERATIONS 
       AND A TOTAL OF          5 INNER ITERATIONS.
    ------------------------------------------------

 NO OUTPUT CONTROL FOR STRESS PERIOD   11   TIME STEP    9
 
 SOLVING FOR HEAD 
                                                   Max.-Head-Change                         Max.-Flux-Residual
  Residual-Control   Outer-Iter.   Inner-Iter.     Column Row Layer    Maximum-Head-Change  Column Row Layer    Maximum-Flux-Residual          L2-NORM 
          0                 1           2             5   13     1       0.5466996239E-02       5   13    1         0.2952082539E+00      0.4990147802E+00
          0                 2           2             5   13     1      -0.5415942857E-03       5   13    1        -0.2951491941E-01      0.4861616667E-01
          0                 3           1             5   13     1       0.4828828705E-04       5   13    1         0.2655790175E-02      0.4345064753E-02

    ------------------------------------------------
       NWT REQUIRED            3 OUTER ITERATIONS 
       AND A TOTAL OF          5 INNER ITERATIONS.
    ------------------------------------------------

 NO OUTPUT CONTROL FOR STRESS PERIOD   11   TIME STEP   10
 
 SOLVING FOR HEAD 
                                                   Max.-Head-Change                         Max.-Flux-Residual
  Residual-Control   Outer-Iter.   Inner-Iter.     Column Row Layer    Maximum-Head-Change  Column Row Layer    Maximum-Flux-Residual          L2-NORM 
          0                 1           2             5   13     1       0.5264259019E-02       5   13    1         0.2841959345E+00      0.4848737345E+00
          0                 2           2             5   13     1      -0.5215100086E-03       5   13    1        -0.2841391319E-01      0.4721205087E-01
          0                 3           1             5   13     1       0.4649726317E-04       5   13    1         0.2556714880E-02      0.4218959076E-02

    ------------------------------------------------
       NWT REQUIRED            3 OUTER ITERATIONS 
       AND A TOTAL OF          5 INNER ITERATIONS.
    ------------------------------------------------

 NO OUTPUT CONTROL FOR STRESS PERIOD   11   TIME STEP   11
 
 SOLVING FOR HEAD 
                                                   Max.-Head-Change                         Max.-Flux-Residual
  Residual-Control   Outer-Iter.   Inner-Iter.     Column Row Layer    Maximum-Head-Change  Column Row Layer    Maximum-Flux-Residual          L2-NORM 
          0                 1           2             5   13     1       0.5070303486E-02       5   13    1         0.2736632939E+00      0.4714673190E+00
          0                 2           2             5   13     1      -0.5022931228E-03       5   13    1        -0.2736072792E-01      0.4588156535E-01
          0                 3           1             5   13     1       0.4478293748E-04       5   13    1         0.2461887327E-02      0.4099885739E-02

    ------------------------------------------------
       NWT REQUIRED            3 OUTER ITERATIONS 
       AND A TOTAL OF          5 INNER ITERATIONS.
    ------------------------------------------------

 NO OUTPUT CONTROL FOR STRESS PERIOD   11   TIME STEP   12
 
 SOLVING FOR HEAD 
                                                   Max.-Head-Change                         Max.-Flux-Residual
  Residual-Control   Outer-Iter.   Inner-Iter.     Column Row Layer    Maximum-Head-Change  Column Row Layer    Maximum-Flux-Residual          L2-NORM 
          0                 1           2             5   13     1       0.4884460652E-02       5   13    1         0.2635736456E+00      0.4587345936E+00
          0                 2           2             5   13     1      -0.4838811484E-03       5   13    1        -0.2635190652E-01      0.4461871259E-01
          0                 3           1             5   13     1       0.4314043597E-04       5   13    1         0.2371071975E-02      0.3986781979E-02

    ------------------------------------------------
       NWT REQUIRED            3 OUTER ITERATIONS 
       AND A TOTAL OF          5 INNER ITERATIONS.
    ------------------------------------------------

 NO OUTPUT CONTROL FOR STRESS PERIOD   11   TIME STEP   13
 
 SOLVING FOR HEAD 
                                                   Max.-Head-Change                         Max.-Flux-Residual
  Residual-Control   Outer-Iter.   Inner-Iter.     Column Row Layer    Maximum-Head-Change  Column Row Layer    Maximum-Flux-Residual          L2-NORM 
          0                 1           2             5   13     1       0.4706563636E-02       5   13    1         0.2539177100E+00      0.4466407774E+00
          0                 2           2             5   13     1      -0.4662564666E-03       5   13    1        -0.2538641856E-01      0.4341990155E-01
          0                 3           1             5   13     1       0.4157056943E-04       5   13    1         0.2284253835E-02      0.3879699970E-02

    ------------------------------------------------
       NWT REQUIRED            3 OUTER ITERATIONS 
       AND A TOTAL OF          5 INNER ITERATIONS.
    ------------------------------------------------

 NO OUTPUT CONTROL FOR STRESS PERIOD   11   TIME STEP   14
 
 SOLVING FOR HEAD 
                                                   Max.-Head-Change                         Max.-Flux-Residual
  Residual-Control   Outer-Iter.   Inner-Iter.     Column Row Layer    Maximum-Head-Change  Column Row Layer    Maximum-Flux-Residual          L2-NORM 
          0                 1           2             5   13     1       0.4536106274E-02       5   13    1         0.2446677973E+00      0.4351374955E+00
          0                 2           2             5   13     1      -0.4493706743E-03       5   13    1        -0.2446166798E-01      0.4228053577E-01
          0                 3           1             5   13     1       0.4006503644E-04       5   13    1         0.2201067406E-02      0.3777590422E-02

    ------------------------------------------------
       NWT REQUIRED            3 OUTER ITERATIONS 
       AND A TOTAL OF          5 INNER ITERATIONS.
    ------------------------------------------------

 NO OUTPUT CONTROL FOR STRESS PERIOD   11   TIME STEP   15
 
 SOLVING FOR HEAD 
                                                   Max.-Head-Change                         Max.-Flux-Residual
  Residual-Control   Outer-Iter.   Inner-Iter.     Column Row Layer    Maximum-Head-Change  Column Row Layer    Maximum-Flux-Residual          L2-NORM 
          0                 1           2             5   13     1       0.4372835416E-02       5   13    1         0.2358100411E+00      0.4241803227E+00
          0                 2           2             5   13     1      -0.4331933929E-03       5   13    1        -0.2357592788E-01      0.4119540651E-01
          0                 3           1             5   13     1       0.3862176253E-04       5   13    1         0.2121306942E-02      0.3680640382E-02

    ------------------------------------------------
       NWT REQUIRED            3 OUTER ITERATIONS 
       AND A TOTAL OF          5 INNER ITERATIONS.
    ------------------------------------------------

 NO OUTPUT CONTROL FOR STRESS PERIOD   11   TIME STEP   16
 
 SOLVING FOR HEAD 
                                                   Max.-Head-Change                         Max.-Flux-Residual
  Residual-Control   Outer-Iter.   Inner-Iter.     Column Row Layer    Maximum-Head-Change  Column Row Layer    Maximum-Flux-Residual          L2-NORM 
          0                 1           2             5   13     1       0.4216290698E-02       5   13    1         0.2273190313E+00      0.4137443030E+00
          0                 2           2             5   13     1      -0.4176837172E-03       5   13    1        -0.2272692440E-01      0.4016252786E-01
          0                 3           1             5   13     1       0.3723967755E-04       5   13    1         0.2044957769E-02      0.3587919119E-02

    ------------------------------------------------
       NWT REQUIRED            3 OUTER ITERATIONS 
       AND A TOTAL OF          5 INNER ITERATIONS.
    ------------------------------------------------

 NO OUTPUT CONTROL FOR STRESS PERIOD   11   TIME STEP   17
 
 SOLVING FOR HEAD 
                                                   Max.-Head-Change                         Max.-Flux-Residual
  Residual-Control   Outer-Iter.   Inner-Iter.     Column Row Layer    Maximum-Head-Change  Column Row Layer    Maximum-Flux-Residual          L2-NORM 
          0                 1           2             5   13     1       0.4066260682E-02       5   13    1         0.2191833284E+00      0.4037870799E+00
          0                 2           2             5   13     1      -0.4028194212E-03       5   13    1        -0.2191344335E-01      0.3917770154E-01
          0                 3           1             5   13     1       0.3591335675E-04       5   13    1         0.1971708341E-02      0.3499822732E-02

    ------------------------------------------------
       NWT REQUIRED            3 OUTER ITERATIONS 
       AND A TOTAL OF          5 INNER ITERATIONS.
    ------------------------------------------------

 NO OUTPUT CONTROL FOR STRESS PERIOD   11   TIME STEP   18
 
 SOLVING FOR HEAD 
                                                   Max.-Head-Change                         Max.-Flux-Residual
  Residual-Control   Outer-Iter.   Inner-Iter.     Column Row Layer    Maximum-Head-Change  Column Row Layer    Maximum-Flux-Residual          L2-NORM 
          0                 1           2             5   13     1       0.3922313037E-02       5   13    1         0.2113792936E+00      0.3942721543E+00
          0                 2           2             5   13     1      -0.3885595647E-03       5   13    1        -0.2113321714E-01      0.3823732767E-01
          0                 3           1             5   13     1       0.3464000437E-04       5   13    1         0.1901396132E-02      0.3415374486E-02

    ------------------------------------------------
       NWT REQUIRED            3 OUTER ITERATIONS 
       AND A TOTAL OF          5 INNER ITERATIONS.
    ------------------------------------------------

 NO OUTPUT CONTROL FOR STRESS PERIOD   11   TIME STEP   19
 
 SOLVING FOR HEAD 
                                                   Max.-Head-Change                         Max.-Flux-Residual
  Residual-Control   Outer-Iter.   Inner-Iter.     Column Row Layer    Maximum-Head-Change  Column Row Layer    Maximum-Flux-Residual          L2-NORM 
          0                 1           2             5   13     1       0.3784392420E-02       5   13    1         0.2039035827E+00      0.3851943570E+00
          0                 2           2             5   13     1      -0.3748952634E-03       5   13    1        -0.2038574605E-01      0.3734039452E-01
          0                 3           1             5   13     1       0.3342592056E-04       5   13    1         0.1834364248E-02      0.3335579878E-02

    ------------------------------------------------
       NWT REQUIRED            3 OUTER ITERATIONS 
       AND A TOTAL OF          5 INNER ITERATIONS.
    ------------------------------------------------

 NO OUTPUT CONTROL FOR STRESS PERIOD   11   TIME STEP   20
 
 SOLVING FOR HEAD 
                                                   Max.-Head-Change                         Max.-Flux-Residual
  Residual-Control   Outer-Iter.   Inner-Iter.     Column Row Layer    Maximum-Head-Change  Column Row Layer    Maximum-Flux-Residual          L2-NORM 
          0                 1           2             5   13     1       0.3651979261E-02       5   13    1         0.1967279408E+00      0.3765063754E+00
          0                 2           2             5   13     1      -0.3617775697E-03       5   13    1        -0.1966831817E-01      0.3648287756E-01
          0                 3           1             5   13     1       0.3225317151E-04       5   13    1         0.1769639808E-02      0.3258730313E-02

    ------------------------------------------------
       NWT REQUIRED            3 OUTER ITERATIONS 
       AND A TOTAL OF          5 INNER ITERATIONS.
    ------------------------------------------------

 NO OUTPUT CONTROL FOR STRESS PERIOD   11   TIME STEP   21
 
 SOLVING FOR HEAD 
                                                   Max.-Head-Change                         Max.-Flux-Residual
  Residual-Control   Outer-Iter.   Inner-Iter.     Column Row Layer    Maximum-Head-Change  Column Row Layer    Maximum-Flux-Residual          L2-NORM 
          0                 1           2             5   13     1       0.3525039877E-02       5   13    1         0.1898506617E+00      0.3681967845E+00
          0                 2           2             5   13     1      -0.3491987108E-03       5   13    1        -0.1898055678E-01      0.3566279712E-01
          0                 3           1             5   13     1       0.3113139415E-04       5   13    1         0.1707745238E-02      0.3185222164E-02

    ------------------------------------------------
       NWT REQUIRED            3 OUTER ITERATIONS 
       AND A TOTAL OF          5 INNER ITERATIONS.
    ------------------------------------------------

 NO OUTPUT CONTROL FOR STRESS PERIOD   11   TIME STEP   22
 
 SOLVING FOR HEAD 
                                                   Max.-Head-Change                         Max.-Flux-Residual
  Residual-Control   Outer-Iter.   Inner-Iter.     Column Row Layer    Maximum-Head-Change  Column Row Layer    Maximum-Flux-Residual          L2-NORM 
          0                 1           2             5   13     1       0.3403089908E-02       5   13    1         0.1832449179E+00      0.3602352307E+00
          0                 2           2             5   13     1      -0.3371197620E-03       5   13    1        -0.1832021263E-01      0.3487802503E-01
          0                 3           1             5   13     1       0.3005571370E-04       5   13    1         0.1648374052E-02      0.3113818263E-02

    ------------------------------------------------
       NWT REQUIRED            3 OUTER ITERATIONS 
       AND A TOTAL OF          5 INNER ITERATIONS.
    ------------------------------------------------

 NO OUTPUT CONTROL FOR STRESS PERIOD   11   TIME STEP   23
 
 SOLVING FOR HEAD 
                                                   Max.-Head-Change                         Max.-Flux-Residual
  Residual-Control   Outer-Iter.   Inner-Iter.     Column Row Layer    Maximum-Head-Change  Column Row Layer    Maximum-Flux-Residual          L2-NORM 
          0                 1           2             5   13     1       0.3286122574E-02       5   13    1         0.1769106005E+00      0.3526131789E+00
          0                 2           2             5   13     1      -0.3255308756E-03       5   13    1        -0.1768683391E-01      0.3412672276E-01
          0                 3           1             5   13     1       0.2902274280E-04       5   13    1         0.1591404005E-02      0.3048033604E-02

    ------------------------------------------------
       NWT REQUIRED            3 OUTER ITERATIONS 
       AND A TOTAL OF          5 INNER ITERATIONS.
    ------------------------------------------------

 NO OUTPUT CONTROL FOR STRESS PERIOD   11   TIME STEP   24
 
 SOLVING FOR HEAD 
                                                   Max.-Head-Change                         Max.-Flux-Residual
  Residual-Control   Outer-Iter.   Inner-Iter.     Column Row Layer    Maximum-Head-Change  Column Row Layer    Maximum-Flux-Residual          L2-NORM 
          0                 1           2             5   13     1       0.3173788200E-02       5   13    1         0.1708284652E+00      0.3452975178E+00
          0                 2           2             5   13     1      -0.3144021871E-03       5   13    1        -0.1707874131E-01      0.3340597181E-01
          0                 3           1             5   13     1       0.2802969699E-04       5   13    1         0.1536648053E-02      0.2983556528E-02

    ------------------------------------------------
       NWT REQUIRED            3 OUTER ITERATIONS 
       AND A TOTAL OF          5 INNER ITERATIONS.
    ------------------------------------------------

 NO OUTPUT CONTROL FOR STRESS PERIOD   11   TIME STEP   25
 
 SOLVING FOR HEAD 
                                                   Max.-Head-Change                         Max.-Flux-Residual
  Residual-Control   Outer-Iter.   Inner-Iter.     Column Row Layer    Maximum-Head-Change  Column Row Layer    Maximum-Flux-Residual          L2-NORM 
          0                 1           2             5   13     1       0.3065872298E-02       5   13    1         0.1649868064E+00      0.3382766071E+00
          0                 2           2             5   13     1      -0.3037089304E-03       5   13    1        -0.1649456579E-01      0.3271438371E-01
          0                 3           1             5   13     1       0.2707574140E-04       5   13    1         0.1484059658E-02      0.2921533729E-02

    ------------------------------------------------
       NWT REQUIRED            3 OUTER ITERATIONS 
       AND A TOTAL OF          5 INNER ITERATIONS.
    ------------------------------------------------

 NO OUTPUT CONTROL FOR STRESS PERIOD   11   TIME STEP   26
 
 SOLVING FOR HEAD 
                                                   Max.-Head-Change                         Max.-Flux-Residual
  Residual-Control   Outer-Iter.   Inner-Iter.     Column Row Layer    Maximum-Head-Change  Column Row Layer    Maximum-Flux-Residual          L2-NORM 
          0                 1           2             5   13     1       0.2962290363E-02       5   13    1         0.1593808862E+00      0.3315322884E+00
          0                 2           2             5   13     1      -0.2934507018E-03       5   13    1        -0.1593425256E-01      0.3205113297E-01
          0                 3           1             5   13     1       0.2616163747E-04       5   13    1         0.1433666292E-02      0.2862265350E-02

    ------------------------------------------------
       NWT REQUIRED            3 OUTER ITERATIONS 
       AND A TOTAL OF          5 INNER ITERATIONS.
    ------------------------------------------------

 NO OUTPUT CONTROL FOR STRESS PERIOD   11   TIME STEP   27
 
 SOLVING FOR HEAD 
                                                   Max.-Head-Change                         Max.-Flux-Residual
  Residual-Control   Outer-Iter.   Inner-Iter.     Column Row Layer    Maximum-Head-Change  Column Row Layer    Maximum-Flux-Residual          L2-NORM 
          0                 1           2             5   13     1       0.2862717501E-02       5   13    1         0.1539931402E+00      0.3250619790E+00
          0                 2           2             5   13     1      -0.2835843139E-03       5   13    1        -0.1539548438E-01      0.3141426316E-01
          0                 3           1             5   13     1       0.2528191599E-04       5   13    1         0.1385185582E-02      0.2805276666E-02

    ------------------------------------------------
       NWT REQUIRED            3 OUTER ITERATIONS 
       AND A TOTAL OF          5 INNER ITERATIONS.
    ------------------------------------------------

 NO OUTPUT CONTROL FOR STRESS PERIOD   11   TIME STEP   28
 
 SOLVING FOR HEAD 
                                                   Max.-Head-Change                         Max.-Flux-Residual
  Residual-Control   Outer-Iter.   Inner-Iter.     Column Row Layer    Maximum-Head-Change  Column Row Layer    Maximum-Flux-Residual          L2-NORM 
          0                 1           2             5   13     1       0.2767093250E-02       5   13    1         0.1488200793E+00      0.3188296406E+00
          0                 2           2             5   13     1      -0.2741111252E-03       5   13    1        -0.1487826555E-01      0.3080203884E-01
          0                 3           1             5   13     1       0.2443787243E-04       5   13    1         0.1338684238E-02      0.2750725784E-02

    ------------------------------------------------
       NWT REQUIRED            3 OUTER ITERATIONS 
       AND A TOTAL OF          5 INNER ITERATIONS.
    ------------------------------------------------

 NO OUTPUT CONTROL FOR STRESS PERIOD   11   TIME STEP   29
 
 SOLVING FOR HEAD 
                                                   Max.-Head-Change                         Max.-Flux-Residual
  Residual-Control   Outer-Iter.   Inner-Iter.     Column Row Layer    Maximum-Head-Change  Column Row Layer    Maximum-Flux-Residual          L2-NORM 
          0                 1           2             2    2     1      -0.3035389410E-02       2    2    1        -0.1591489250E+00      0.3600221212E+00
          0                 2           2             2    2     1       0.3011798720E-03       2    2    1         0.1591487323E-01      0.3509512490E-01
          0                 3           1             2    2     1      -0.2687146037E-04       2    2    1        -0.1432333707E-02      0.3141990010E-02

    ------------------------------------------------
       NWT REQUIRED            3 OUTER ITERATIONS 
       AND A TOTAL OF          5 INNER ITERATIONS.
    ------------------------------------------------

 NO OUTPUT CONTROL FOR STRESS PERIOD   11   TIME STEP   30



 STREAM LISTING     PERIOD     11   STEP       30

 LAYER ROW COL. STREAM  RCH.  FLOW INTO     FLOW TO   FLOW OUT OF   OVRLND.     DIRECT     STREAM       STREAM     STREAM     STREAM   STREAMBED  STREAMBED
                SEG.NO.  NO.  STRM. RCH.    AQUIFER    STRM. RCH.    RUNOFF     PRECIP       ET          HEAD       DEPTH      WIDTH   CONDCTNC.   GRADIENT

   1    1    1     1     1    4.3470E+00  9.1790E-02   4.2552E+00  0.000E+00  0.000E+00  0.000E+00  1.09376E+03  7.122E-01  5.495E+00  2.473E-02  1.237E+00
   1    2    2     1     2    4.2552E+00  1.4068E-01   4.1146E+00  0.000E+00  0.000E+00  0.000E+00  1.08877E+03  7.076E-01  5.420E+00  3.794E-02  1.236E+00
   1    3    3     1     3    4.1146E+00  1.1854E-01   3.9960E+00  0.000E+00  0.000E+00  0.000E+00  1.08312E+03  7.023E-01  5.336E+00  3.202E-02  1.234E+00
   1    3    4     1     4    3.9960E+00  1.0820E-01   3.8878E+00  0.000E+00  0.000E+00  0.000E+00  1.07810E+03  6.964E-01  5.274E+00  2.927E-02  1.232E+00
   1    4    5     2     1    1.8878E+00  2.5317E-01   1.6347E+00  0.000E+00  0.000E+00  0.000E+00  1.07218E+03  2.458E-01  1.200E+01  7.800E-02  1.082E+00
   1    5    6     2     2    1.6347E+00  1.9360E-01   1.4411E+00  0.000E+00  0.000E+00  0.000E+00  1.06674E+03  2.266E-01  1.200E+01  6.000E-02  1.076E+00
   1    6    6     2     3    1.4411E+00  1.9255E-01   1.2485E+00  0.000E+00  0.000E+00  0.000E+00  1.06200E+03  2.091E-01  1.200E+01  6.000E-02  1.070E+00
   1    7    6     2     4    1.2485E+00  1.9144E-01   1.0571E+00  0.000E+00  0.000E+00  0.000E+00  1.05727E+03  1.906E-01  1.200E+01  6.000E-02  1.064E+00
   1    8    6     2     5    1.0571E+00  1.9026E-01   8.6681E-01  0.000E+00  0.000E+00  0.000E+00  1.05253E+03  1.710E-01  1.200E+01  6.000E-02  1.057E+00
   1    3    5     3     1    2.0000E+00  2.8252E-01   1.7175E+00  0.000E+00  0.000E+00  0.000E+00  1.07555E+03  1.909E+00  9.636E+00  7.227E-02  1.955E+00
   1    3    6     3     2    1.7175E+00  2.4905E-01   1.4684E+00  0.000E+00  0.000E+00  0.000E+00  1.07264E+03  1.727E+00  8.909E+00  6.682E-02  1.864E+00
   1    3    7     3     3    1.4684E+00  1.9718E-01   1.2712E+00  0.000E+00  0.000E+00  0.000E+00  1.06987E+03  1.555E+00  8.218E+00  5.547E-02  1.777E+00
   1    4    8     3     4    1.2712E+00  2.2567E-01   1.0456E+00  0.000E+00  0.000E+00  0.000E+00  1.06682E+03  1.364E+00  7.455E+00  6.709E-02  1.682E+00
   1    5    8     3     5    1.0456E+00  1.5790E-01   8.8768E-01  0.000E+00  0.000E+00  0.000E+00  1.06362E+03  1.164E+00  6.655E+00  4.991E-02  1.582E+00
   1    6    8     3     6    8.8768E-01  5.5980E-02   8.3170E-01  0.000E+00  0.000E+00  0.000E+00  1.06158E+03  1.036E+00  6.145E+00  1.844E-02  1.518E+00
   1    5   10     4     1    1.0000E+01  9.0919E-02   9.9091E+00  0.000E+00  0.000E+00  0.000E+00  1.07836E+03  6.368E-01  1.000E+01  2.500E-02  1.212E+00
   1    5    9     4     2    9.9091E+00  1.8158E-01   9.7275E+00  0.000E+00  0.000E+00  0.000E+00  1.07154E+03  6.315E-01  1.000E+01  5.000E-02  1.211E+00
   1    6    8     4     3    9.7275E+00  1.2689E-01   9.6006E+00  0.000E+00  0.000E+00  0.000E+00  1.06381E+03  6.256E-01  1.000E+01  3.500E-02  1.209E+00
   1    6    8     5     1    1.0432E+01  2.2686E-01   1.0205E+01  0.000E+00  0.000E+00  0.000E+00  1.05868E+03  6.790E-01  1.542E+01  6.166E-02  1.226E+00
   1    7    7     5     2    1.0205E+01  2.7894E-01   9.9265E+00  0.000E+00  0.000E+00  0.000E+00  1.05417E+03  6.732E-01  1.519E+01  7.594E-02  1.224E+00
   1    8    7     5     3    9.9265E+00  1.9221E-01   9.7343E+00  0.000E+00  0.000E+00  0.000E+00  1.04992E+03  6.676E-01  1.497E+01  5.241E-02  1.223E+00
   1    8    6     5     4    9.7343E+00  1.3577E-01   9.5985E+00  0.000E+00  0.000E+00  0.000E+00  1.04691E+03  6.637E-01  1.482E+01  3.706E-02  1.221E+00
   1    9    6     6     1    1.0465E+01  2.2317E-01   1.0242E+01  0.000E+00  0.000E+00  0.000E+00  1.04345E+03  7.195E-01  1.200E+01  6.000E-02  1.240E+00
   1   10    7     6     2    1.0242E+01  2.2261E-01   1.0020E+01  0.000E+00  0.000E+00  0.000E+00  1.03889E+03  7.102E-01  1.200E+01  6.000E-02  1.237E+00
   1   11    7     6     3    1.0020E+01  2.2205E-01   9.7975E+00  0.000E+00  0.000E+00  0.000E+00  1.03434E+03  7.008E-01  1.200E+01  6.000E-02  1.234E+00
   1   12    7     6     4    9.7975E+00  2.2148E-01   9.5760E+00  0.000E+00  0.000E+00  0.000E+00  1.02978E+03  6.913E-01  1.200E+01  6.000E-02  1.230E+00
   1   13    7     6     5    9.5760E+00 -1.0763E-01   9.6837E+00  0.000E+00  0.000E+00  0.000E+00  1.02660E+03  6.889E-01  1.200E+01  2.400E-01 -1.495E-01
   1   14    9     7     1    1.5000E+02  1.3379E+00   1.4866E+02  0.000E+00  0.000E+00  0.000E+00  1.03987E+03  2.288E+00  5.529E+01  5.593E-01  7.973E-01
   1   13    8     7     2    1.4866E+02  1.8362E+00   1.4683E+02  0.000E+00  0.000E+00  0.000E+00  1.03478E+03  2.279E+00  5.526E+01  6.148E-01  9.956E-01
   1   13    7     7     3    1.4683E+02  1.4762E+00   1.4535E+02  0.000E+00  0.000E+00  0.000E+00  1.02969E+03  2.270E+00  5.522E+01  5.585E-01  8.811E-01
   1   13    6     8     1    1.5503E+02  8.5989E-01   1.5417E+02  0.000E+00  0.000E+00  0.000E+00  1.02472E+03  2.849E+00  4.131E+01  4.210E-01  6.809E-01
   1   13    5     8     2    1.5417E+02  1.4391E-01   1.5403E+02  0.000E+00  0.000E+00  0.000E+00  1.01847E+03  2.845E+00  4.126E+01  4.204E-01  1.141E-01
   1   13    4     8     3    1.5403E+02 -2.5987E+00   1.5663E+02  0.000E+00  0.000E+00  0.000E+00  1.01223E+03  2.854E+00  4.138E+01  4.217E+00 -2.054E-01
   1   13    3     8     4    1.5663E+02 -3.7367E+00   1.6036E+02  0.000E+00  0.000E+00  0.000E+00  1.00600E+03  2.876E+00  4.170E+01  4.249E+00 -2.931E-01
   1   13    2     8     5    1.6036E+02 -2.6210E+00   1.6299E+02  0.000E+00  0.000E+00  0.000E+00  9.99772E+02  2.897E+00  4.201E+01  4.281E+00 -2.041E-01
   1   13    1     8     6    1.6299E+02 -1.9363E+00   1.6492E+02  0.000E+00  0.000E+00  0.000E+00  9.94787E+02  2.912E+00  4.223E+01  2.582E+00 -2.500E-01
   1    6    8     9     1    0.0000E+00  0.0000E+00   0.0000E+00  0.000E+00  0.000E+00  0.000E+00  1.07850E+03  0.000E+00  4.000E+00  0.000E+00  1.000E+00





UNSATURATED ZONE PACKAGE VOLUMETRIC BUDGET FOR  TIME STEP    30 STRESS PERIOD   11
  ------------------------------------------------------------------------------



     CUMULATIVE VOLUMES      L**3       RATES FOR THIS TIME STEP      L**3/T
     ------------------                 ------------------------

           IN:                                      IN:
           ---                                      ---
        INFILTRATION =    56192156.8887          INFILTRATION =       0.0000E+00

          OUT:                                     OUT:
          ----                                     ----
              UZF ET =    41641607.7268                UZF ET =           0.1114
        UZF RECHARGE =     2339397.7802          UZF RECHARGE =           0.0135

            IN - OUT =    12211151.3816              IN - OUT =          -0.1249

          STORAGE:                                 STORAGE:
          --------                                 --------
      STORAGE CHANGE =    12228267.1428        STORAGE CHANGE =          -0.1249

 PERCENT DISCREPANCY IS DIFFERENCE BETWEEN IN-OUT MINUS CHANGE IN STORAGE
 DIVIDED BY THE AVERAGE OF IN AND OUT TIMES 100

 PERCENT DISCREPANCY =          -0.01     PERCENT DISCREPANCY =          -0.01






1
  VOLUMETRIC BUDGET FOR ENTIRE MODEL AT END OF TIME STEP   30, STRESS PERIOD  11
  ------------------------------------------------------------------------------

     CUMULATIVE VOLUMES      L**3       RATES FOR THIS TIME STEP      L**3/T
     ------------------                 ------------------------

           IN:                                      IN:
           ---                                      ---
    AWU WELLS            =    11225853.0000      AWU WELLS            =           0.0000
    DIVERSION SEGMENTS   =    44893080.0000      DIVERSION SEGMENTS   =           0.0000
    GW IRRIGATION        =           0.0000      GW IRRIGATION        =           0.0000
    SW IRRIGATION        =           0.0000      SW IRRIGATION        =           0.0000
    EFFICIENCY FACTOR GW =           0.0000      EFFICIENCY FACTOR GW =           0.0000
    EFFICIENCY FACTOR SW =           0.0000      EFFICIENCY FACTOR SW =           0.0000

                TOTAL IN =    56118932.0000                  TOTAL IN =           0.0000

          OUT:                                     OUT:
          ----                                     ----
    AWU WELLS            =           0.0000      AWU WELLS            =           0.0000
    DIVERSION SEGMENTS   =           0.0000      DIVERSION SEGMENTS   =           0.0000
    GW IRRIGATION        =    11225853.0000      GW IRRIGATION        =           0.0000
    SW IRRIGATION        =    44893080.0000      SW IRRIGATION        =           0.0000
    EFFICIENCY FACTOR GW =           0.0000      EFFICIENCY FACTOR GW =           0.0000
    EFFICIENCY FACTOR SW =           0.0000      EFFICIENCY FACTOR SW =           0.0000

               TOTAL OUT =    56118932.0000                 TOTAL OUT =           0.0000

                IN - OUT =           0.0000                  IN - OUT =           0.0000

     PERCENT DISCREPANCY =           0.00         PERCENT DISCREPANCY =           0.00



1
  VOLUMETRIC BUDGET FOR ENTIRE MODEL AT END OF TIME STEP   30, STRESS PERIOD  11
  ------------------------------------------------------------------------------

     CUMULATIVE VOLUMES      L**3       RATES FOR THIS TIME STEP      L**3/T
     ------------------                 ------------------------

           IN:                                      IN:
           ---                                      ---
             STORAGE     =    49182864.0000               STORAGE     =           1.4029
       CONSTANT HEAD     =           0.0000         CONSTANT HEAD     =           0.0000
     HEAD DEP BOUNDS     =     7537141.0000       HEAD DEP BOUNDS     =           0.2859
      STREAM LEAKAGE     =   321602816.0000        STREAM LEAKAGE     =          10.4251
        UZF RECHARGE     =     2339396.7500          UZF RECHARGE     =       1.3507E-02
               GW ET     =           0.0000                 GW ET     =           0.0000
     SURFACE LEAKAGE     =           0.0000       SURFACE LEAKAGE     =           0.0000
    AWU WELLS            =           0.0000      AWU WELLS            =           0.0000

                TOTAL IN =   380662208.0000                  TOTAL IN =          12.1274

          OUT:                                     OUT:
          ----                                     ----
             STORAGE     =    61497208.0000               STORAGE     =           0.7402
       CONSTANT HEAD     =           0.0000         CONSTANT HEAD     =           0.0000
     HEAD DEP BOUNDS     =     7574255.0000       HEAD DEP BOUNDS     =           0.2864
      STREAM LEAKAGE     =   246215440.0000        STREAM LEAKAGE     =          11.0002
        UZF RECHARGE     =           0.0000          UZF RECHARGE     =           0.0000
               GW ET     =    54158088.0000                 GW ET     =           0.1000
     SURFACE LEAKAGE     =           0.0000       SURFACE LEAKAGE     =           0.0000
    AWU WELLS            =    11225853.0000      AWU WELLS            =           0.0000

               TOTAL OUT =   380670848.0000                 TOTAL OUT =          12.1268

                IN - OUT =       -8640.0000                  IN - OUT =       6.2180E-04

     PERCENT DISCREPANCY =          -0.00         PERCENT DISCREPANCY =           0.01






         TIME SUMMARY AT END OF TIME STEP   30 IN STRESS PERIOD   11
                    SECONDS     MINUTES      HOURS       DAYS        YEARS
                    -----------------------------------------------------------
   TIME STEP LENGTH  87600.      1460.0      24.333      1.0139     2.77588E-03
 STRESS PERIOD TIME 2.62800E+06  43800.      730.00      30.417     8.32763E-02
         TOTAL TIME 2.63664E+07 4.39440E+05  7324.0      305.17     0.83550    
1
1
                            STRESS PERIOD NO.   12, LENGTH =   2628000.    
                            -----------------------------------------------

                              NUMBER OF TIME STEPS =    30

                               MULTIPLIER FOR DELT =     1.000

                            INITIAL TIME STEP SIZE =   87600.00    

 REUSING NON-PARAMETER GHB CELLS FROM LAST STRESS PERIOD

      2 GHB CELLS

 REUSING STREAM SEGMENT DATA FROM LAST STRESS PERIOD



            AREAL INFILTRATION RATE
 READING ON UNIT   19 WITH FORMAT: (10F4.0)            

            1           2           3           4           5           6           7           8           9          10
 ........................................................................................................................
   1    0.000       0.000       0.000       0.000       0.000       0.000       0.000       0.000       0.000       0.000    
   2    0.000       0.000       0.000       0.000       0.000       0.000       0.000       0.000       0.000       0.000    
   3    0.000       0.000       0.000       0.000       0.000       0.000       0.000       0.000       0.000       0.000    
   4    0.000       0.000       0.000       0.000       0.000       0.000       0.000       0.000       0.000       0.000    
   5    0.000       0.000       0.000       0.000       0.000       0.000       0.000       0.000       0.000       0.000    
   6    0.000       0.000       0.000       0.000       0.000       0.000       0.000       0.000       0.000       0.000    
   7    0.000       0.000       0.000       0.000       0.000       0.000       0.000       0.000       0.000       0.000    
   8    0.000       0.000       0.000       0.000       0.000       0.000       0.000       0.000       0.000       0.000    
   9    0.000       0.000       0.000       0.000       0.000       0.000       0.000       0.000       0.000       0.000    
  10    0.000       0.000       0.000       0.000       0.000       0.000       0.000       0.000       0.000       0.000    
  11    0.000       0.000       0.000       0.000       0.000       0.000       0.000       0.000       0.000       0.000    
  12    0.000       0.000       0.000       0.000       0.000       0.000       0.000       0.000       0.000       0.000    
  13    0.000       0.000       0.000       0.000       0.000       0.000       0.000       0.000       0.000       0.000    
  14    0.000       0.000       0.000       0.000       0.000       0.000       0.000       0.000       0.000       0.000    
  15    0.000       0.000       0.000       0.000       0.000       0.000       0.000       0.000       0.000       0.000    

                  ET RATE =  1.000000E-10

 USING ET EXTINCTION DEPTH FROM PREVIOUS STRESS PERIOD. CURRENT PERIOD IS:      12

 USING EXTINCTION WATER CONTENT FROM PREVIOUS STRESS PERIOD. CURRENT PERIOD IS:      12

 PROCESSING AWU STRESS PERIOD DATA

 READING AWU STRESS PERIOD DATA

 READING IRRIGATION STREAM

 READING IRRIGATION WELL

 READING SUPPLEMENTAL WEL

 END PROCESSING AWU STRESS PERIOD DATA OPTIONS
 
 SOLVING FOR HEAD 
                                                   Max.-Head-Change                         Max.-Flux-Residual
  Residual-Control   Outer-Iter.   Inner-Iter.     Column Row Layer    Maximum-Head-Change  Column Row Layer    Maximum-Flux-Residual          L2-NORM 
          0                 1           2             2    2     1      -0.3249637165E-02       2    2    1        -0.1703476255E+00      0.3783260765E+00
          0                 2           2             2    2     1       0.3223959816E-03       2    2    1         0.1703473976E-01      0.3705153848E-01
          0                 3           1             2    2     1      -0.2876319110E-04       2    2    1        -0.1533121916E-02      0.3319676474E-02

    ------------------------------------------------
       NWT REQUIRED            3 OUTER ITERATIONS 
       AND A TOTAL OF          5 INNER ITERATIONS.
    ------------------------------------------------

 NO OUTPUT CONTROL FOR STRESS PERIOD   12   TIME STEP    1
 
 SOLVING FOR HEAD 
                                                   Max.-Head-Change                         Max.-Flux-Residual
  Residual-Control   Outer-Iter.   Inner-Iter.     Column Row Layer    Maximum-Head-Change  Column Row Layer    Maximum-Flux-Residual          L2-NORM 
          0                 1           2             2    2     1      -0.3218559233E-02       2    2    1        -0.1687104674E+00      0.3712848285E+00
          0                 2           2             2    2     1       0.3193028510E-03       2    2    1         0.1687102466E-01      0.3631358233E-01
          0                 3           1             2    2     1      -0.2848696618E-04       2    2    1        -0.1518387747E-02      0.3253406231E-02

    ------------------------------------------------
       NWT REQUIRED            3 OUTER ITERATIONS 
       AND A TOTAL OF          5 INNER ITERATIONS.
    ------------------------------------------------

 NO OUTPUT CONTROL FOR STRESS PERIOD   12   TIME STEP    2
 
 SOLVING FOR HEAD 
                                                   Max.-Head-Change                         Max.-Flux-Residual
  Residual-Control   Outer-Iter.   Inner-Iter.     Column Row Layer    Maximum-Head-Change  Column Row Layer    Maximum-Flux-Residual          L2-NORM 
          0                 1           2             2    2     1      -0.3187959843E-02       2    2    1        -0.1670985567E+00      0.3645422067E+00
          0                 2           2             2    2     1       0.3162574004E-03       2    2    1         0.1670983430E-01      0.3565358228E-01
          0                 3           1             2    2     1      -0.2821500046E-04       2    2    1        -0.1503880803E-02      0.3194694522E-02

    ------------------------------------------------
       NWT REQUIRED            3 OUTER ITERATIONS 
       AND A TOTAL OF          5 INNER ITERATIONS.
    ------------------------------------------------

 NO OUTPUT CONTROL FOR STRESS PERIOD   12   TIME STEP    3
 
 SOLVING FOR HEAD 
                                                   Max.-Head-Change                         Max.-Flux-Residual
  Residual-Control   Outer-Iter.   Inner-Iter.     Column Row Layer    Maximum-Head-Change  Column Row Layer    Maximum-Flux-Residual          L2-NORM 
          0                 1           2             2    2     1      -0.3157831651E-02       2    2    1        -0.1655114638E+00      0.3581655014E+00
          0                 2           2             2    2     1       0.3132588317E-03       2    2    1         0.1655112569E-01      0.3502991737E-01
          0                 3           1             2    2     1      -0.2794722150E-04       2    2    1        -0.1489597198E-02      0.3138823755E-02

    ------------------------------------------------
       NWT REQUIRED            3 OUTER ITERATIONS 
       AND A TOTAL OF          5 INNER ITERATIONS.
    ------------------------------------------------

 NO OUTPUT CONTROL FOR STRESS PERIOD   12   TIME STEP    4
 
 SOLVING FOR HEAD 
                                                   Max.-Head-Change                         Max.-Flux-Residual
  Residual-Control   Outer-Iter.   Inner-Iter.     Column Row Layer    Maximum-Head-Change  Column Row Layer    Maximum-Flux-Residual          L2-NORM 
          0                 1           2             2    2     1      -0.3128078846E-02       2    2    1        -0.1639442336E+00      0.3521017019E+00
          0                 2           2             2    2     1       0.3102977317E-03       2    2    1         0.1639440330E-01      0.3443689003E-01
          0                 3           1             2    2     1      -0.2768279184E-04       2    2    1        -0.1475492358E-02      0.3085735755E-02

    ------------------------------------------------
       NWT REQUIRED            3 OUTER ITERATIONS 
       AND A TOTAL OF          5 INNER ITERATIONS.
    ------------------------------------------------

 NO OUTPUT CONTROL FOR STRESS PERIOD   12   TIME STEP    5
 
 SOLVING FOR HEAD 
                                                   Max.-Head-Change                         Max.-Flux-Residual
  Residual-Control   Outer-Iter.   Inner-Iter.     Column Row Layer    Maximum-Head-Change  Column Row Layer    Maximum-Flux-Residual          L2-NORM 
          0                 1           2             2    2     1      -0.3098869647E-02       2    2    1        -0.1624056233E+00      0.3463390075E+00
          0                 2           2             2    2     1       0.3073907233E-03       2    2    1         0.1624054290E-01      0.3387397518E-01
          0                 3           1             2    2     1      -0.2742319090E-04       2    2    1        -0.1461645086E-02      0.3035349492E-02

    ------------------------------------------------
       NWT REQUIRED            3 OUTER ITERATIONS 
       AND A TOTAL OF          5 INNER ITERATIONS.
    ------------------------------------------------

 NO OUTPUT CONTROL FOR STRESS PERIOD   12   TIME STEP    6
 
 SOLVING FOR HEAD 
                                                   Max.-Head-Change                         Max.-Flux-Residual
  Residual-Control   Outer-Iter.   Inner-Iter.     Column Row Layer    Maximum-Head-Change  Column Row Layer    Maximum-Flux-Residual          L2-NORM 
          0                 1           2             2    2     1      -0.3070021070E-02       2    2    1        -0.1608860535E+00      0.3408460883E+00
          0                 2           2             2    2     1       0.3045196668E-03       2    2    1         0.1608858653E-01      0.3333707053E-01
          0                 3           1             2    2     1      -0.2716680198E-04       2    2    1        -0.1447969191E-02      0.2987049189E-02

    ------------------------------------------------
       NWT REQUIRED            3 OUTER ITERATIONS 
       AND A TOTAL OF          5 INNER ITERATIONS.
    ------------------------------------------------

 NO OUTPUT CONTROL FOR STRESS PERIOD   12   TIME STEP    7
 
 SOLVING FOR HEAD 
                                                   Max.-Head-Change                         Max.-Flux-Residual
  Residual-Control   Outer-Iter.   Inner-Iter.     Column Row Layer    Maximum-Head-Change  Column Row Layer    Maximum-Flux-Residual          L2-NORM 
          0                 1           2             2    2     1      -0.3041613375E-02       2    2    1        -0.1593897624E+00      0.3355944569E+00
          0                 2           2             2    2     1       0.3016925547E-03       2    2    1         0.1593895803E-01      0.3282430925E-01
          0                 3           1             2    2     1      -0.2691433925E-04       2    2    1        -0.1434502788E-02      0.2941086341E-02

    ------------------------------------------------
       NWT REQUIRED            3 OUTER ITERATIONS 
       AND A TOTAL OF          5 INNER ITERATIONS.
    ------------------------------------------------

 NO OUTPUT CONTROL FOR STRESS PERIOD   12   TIME STEP    8
 
 SOLVING FOR HEAD 
                                                   Max.-Head-Change                         Max.-Flux-Residual
  Residual-Control   Outer-Iter.   Inner-Iter.     Column Row Layer    Maximum-Head-Change  Column Row Layer    Maximum-Flux-Residual          L2-NORM 
          0                 1           2             2    2     1      -0.3013552039E-02       2    2    1        -0.1579117579E+00      0.3305715777E+00
          0                 2           2             2    2     1       0.2988999717E-03       2    2    1         0.1579115814E-01      0.3233399970E-01
          0                 3           1             2    2     1      -0.2666496060E-04       2    2    1        -0.1421200944E-02      0.2897467636E-02

    ------------------------------------------------
       NWT REQUIRED            3 OUTER ITERATIONS 
       AND A TOTAL OF          5 INNER ITERATIONS.
    ------------------------------------------------

 NO OUTPUT CONTROL FOR STRESS PERIOD   12   TIME STEP    9
 
 SOLVING FOR HEAD 
                                                   Max.-Head-Change                         Max.-Flux-Residual
  Residual-Control   Outer-Iter.   Inner-Iter.     Column Row Layer    Maximum-Head-Change  Column Row Layer    Maximum-Flux-Residual          L2-NORM 
          0                 1           2             2    2     1      -0.2986005790E-02       2    2    1        -0.1564608696E+00      0.3257616703E+00
          0                 2           2             2    2     1       0.2961586195E-03       2    2    1         0.1564606988E-01      0.3186458715E-01
          0                 3           1             2    2     1      -0.2642015722E-04       2    2    1        -0.1408143148E-02      0.2855416545E-02

    ------------------------------------------------
       NWT REQUIRED            3 OUTER ITERATIONS 
       AND A TOTAL OF          5 INNER ITERATIONS.
    ------------------------------------------------

 NO OUTPUT CONTROL FOR STRESS PERIOD   12   TIME STEP   10
 
 SOLVING FOR HEAD 
                                                   Max.-Head-Change                         Max.-Flux-Residual
  Residual-Control   Outer-Iter.   Inner-Iter.     Column Row Layer    Maximum-Head-Change  Column Row Layer    Maximum-Flux-Residual          L2-NORM 
          0                 1           2             2    2     1      -0.2958791775E-02       2    2    1        -0.1550275445E+00      0.3211354778E+00
          0                 2           2             2    2     1       0.2934504120E-03       2    2    1         0.1550273790E-01      0.3141298189E-01
          0                 3           1             2    2     1      -0.2617831610E-04       2    2    1        -0.1395243441E-02      0.2815062229E-02

    ------------------------------------------------
       NWT REQUIRED            3 OUTER ITERATIONS 
       AND A TOTAL OF          5 INNER ITERATIONS.
    ------------------------------------------------

 NO OUTPUT CONTROL FOR STRESS PERIOD   12   TIME STEP   11
 
 SOLVING FOR HEAD 
                                                   Max.-Head-Change                         Max.-Flux-Residual
  Residual-Control   Outer-Iter.   Inner-Iter.     Column Row Layer    Maximum-Head-Change  Column Row Layer    Maximum-Flux-Residual          L2-NORM 
          0                 1           2             2    2     1      -0.2931991549E-02       2    2    1        -0.1536160245E+00      0.3166964136E+00
          0                 2           2             2    2     1       0.2907834040E-03       2    2    1         0.1536158642E-01      0.3097965219E-01
          0                 3           1             2    2     1      -0.2594015337E-04       2    2    1        -0.1382539961E-02      0.2776221843E-02

    ------------------------------------------------
       NWT REQUIRED            3 OUTER ITERATIONS 
       AND A TOTAL OF          5 INNER ITERATIONS.
    ------------------------------------------------

 NO OUTPUT CONTROL FOR STRESS PERIOD   12   TIME STEP   12
 
 SOLVING FOR HEAD 
                                                   Max.-Head-Change                         Max.-Flux-Residual
  Residual-Control   Outer-Iter.   Inner-Iter.     Column Row Layer    Maximum-Head-Change  Column Row Layer    Maximum-Flux-Residual          L2-NORM 
          0                 1           2             2    2     1      -0.2905597783E-02       2    2    1        -0.1522259656E+00      0.3124208006E+00
          0                 2           2             2    2     1       0.2881569092E-03       2    2    1         0.1522258107E-01      0.3056222973E-01
          0                 3           1             2    2     1      -0.2570561033E-04       2    2    1        -0.1370029619E-02      0.2738786988E-02

    ------------------------------------------------
       NWT REQUIRED            3 OUTER ITERATIONS 
       AND A TOTAL OF          5 INNER ITERATIONS.
    ------------------------------------------------

 NO OUTPUT CONTROL FOR STRESS PERIOD   12   TIME STEP   13
 
 SOLVING FOR HEAD 
                                                   Max.-Head-Change                         Max.-Flux-Residual
  Residual-Control   Outer-Iter.   Inner-Iter.     Column Row Layer    Maximum-Head-Change  Column Row Layer    Maximum-Flux-Residual          L2-NORM 
          0                 1           2             2    2     1      -0.2879604364E-02       2    2    1        -0.1508569854E+00      0.3082991037E+00
          0                 2           2             2    2     1       0.2855702364E-03       2    2    1         0.1508568353E-01      0.3015974795E-01
          0                 3           1             2    2     1      -0.2547462413E-04       2    2    1        -0.1357708993E-02      0.2702812741E-02

    ------------------------------------------------
       NWT REQUIRED            3 OUTER ITERATIONS 
       AND A TOTAL OF          5 INNER ITERATIONS.
    ------------------------------------------------

 NO OUTPUT CONTROL FOR STRESS PERIOD   12   TIME STEP   14
 
 SOLVING FOR HEAD 
                                                   Max.-Head-Change                         Max.-Flux-Residual
  Residual-Control   Outer-Iter.   Inner-Iter.     Column Row Layer    Maximum-Head-Change  Column Row Layer    Maximum-Flux-Residual          L2-NORM 
          0                 1           2             2    2     1      -0.2853916816E-02       2    2    1        -0.1495041944E+00      0.3043223843E+00
          0                 2           2             2    2     1       0.2830141187E-03       2    2    1         0.1495040490E-01      0.2977113372E-01
          0                 3           1             2    2     1      -0.2524636737E-04       2    2    1        -0.1345534051E-02      0.2667980767E-02

    ------------------------------------------------
       NWT REQUIRED            3 OUTER ITERATIONS 
       AND A TOTAL OF          5 INNER ITERATIONS.
    ------------------------------------------------

 NO OUTPUT CONTROL FOR STRESS PERIOD   12   TIME STEP   15
 
 SOLVING FOR HEAD 
                                                   Max.-Head-Change                         Max.-Flux-Residual
  Residual-Control   Outer-Iter.   Inner-Iter.     Column Row Layer    Maximum-Head-Change  Column Row Layer    Maximum-Flux-Residual          L2-NORM 
          0                 1           2             2    2     1      -0.2828617460E-02       2    2    1        -0.1481718389E+00      0.3004728670E+00
          0                 2           2             2    2     1       0.2804966106E-03       2    2    1         0.1481716984E-01      0.2939503718E-01
          0                 3           1             2    2     1      -0.2502155864E-04       2    2    1        -0.1333543036E-02      0.2634289029E-02

    ------------------------------------------------
       NWT REQUIRED            3 OUTER ITERATIONS 
       AND A TOTAL OF          5 INNER ITERATIONS.
    ------------------------------------------------

 NO OUTPUT CONTROL FOR STRESS PERIOD   12   TIME STEP   16
 
 SOLVING FOR HEAD 
                                                   Max.-Head-Change                         Max.-Flux-Residual
  Residual-Control   Outer-Iter.   Inner-Iter.     Column Row Layer    Maximum-Head-Change  Column Row Layer    Maximum-Flux-Residual          L2-NORM 
          0                 1           2             2    2     1      -0.2803699457E-02       2    2    1        -0.1468596190E+00      0.2967667575E+00
          0                 2           2             2    2     1       0.2780171124E-03       2    2    1         0.1468594828E-01      0.2903278143E-01
          0                 3           1             2    2     1      -0.2480014613E-04       2    2    1        -0.1321733230E-02      0.2602250918E-02

    ------------------------------------------------
       NWT REQUIRED            3 OUTER ITERATIONS 
       AND A TOTAL OF          5 INNER ITERATIONS.
    ------------------------------------------------

 NO OUTPUT CONTROL FOR STRESS PERIOD   12   TIME STEP   17
 
 SOLVING FOR HEAD 
                                                   Max.-Head-Change                         Max.-Flux-Residual
  Residual-Control   Outer-Iter.   Inner-Iter.     Column Row Layer    Maximum-Head-Change  Column Row Layer    Maximum-Flux-Residual          L2-NORM 
          0                 1           2             2    2     1      -0.2779156797E-02       2    2    1        -0.1455671759E+00      0.2931744075E+00
          0                 2           2             2    2     1       0.2755749820E-03       2    2    1         0.1455670441E-01      0.2868252644E-01
          0                 3           1             2    2     1      -0.2458207040E-04       2    2    1        -0.1310101412E-02      0.2571903882E-02

    ------------------------------------------------
       NWT REQUIRED            3 OUTER ITERATIONS 
       AND A TOTAL OF          5 INNER ITERATIONS.
    ------------------------------------------------

 NO OUTPUT CONTROL FOR STRESS PERIOD   12   TIME STEP   18
 
 SOLVING FOR HEAD 
                                                   Max.-Head-Change                         Max.-Flux-Residual
  Residual-Control   Outer-Iter.   Inner-Iter.     Column Row Layer    Maximum-Head-Change  Column Row Layer    Maximum-Flux-Residual          L2-NORM 
          0                 1           2             2    2     1      -0.2754983230E-02       2    2    1        -0.1442942000E+00      0.2896845173E+00
          0                 2           2             2    2     1       0.2731696191E-03       2    2    1         0.1442940724E-01      0.2833968333E-01
          0                 3           1             2    2     1      -0.2436727864E-04       2    2    1        -0.1298644811E-02      0.2539775000E-02

    ------------------------------------------------
       NWT REQUIRED            3 OUTER ITERATIONS 
       AND A TOTAL OF          5 INNER ITERATIONS.
    ------------------------------------------------

 NO OUTPUT CONTROL FOR STRESS PERIOD   12   TIME STEP   19
 
 SOLVING FOR HEAD 
                                                   Max.-Head-Change                         Max.-Flux-Residual
  Residual-Control   Outer-Iter.   Inner-Iter.     Column Row Layer    Maximum-Head-Change  Column Row Layer    Maximum-Flux-Residual          L2-NORM 
          0                 1           2             2    2     1      -0.2731085126E-02       2    2    1        -0.1430357898E+00      0.2863113858E+00
          0                 2           2             2    2     1       0.2707917415E-03       2    2    1         0.1430356664E-01      0.2800926405E-01
          0                 3           1             2    2     1      -0.2415494275E-04       2    2    1        -0.1287319274E-02      0.2510159152E-02

    ------------------------------------------------
       NWT REQUIRED            3 OUTER ITERATIONS 
       AND A TOTAL OF          5 INNER ITERATIONS.
    ------------------------------------------------

 NO OUTPUT CONTROL FOR STRESS PERIOD   12   TIME STEP   20
 
 SOLVING FOR HEAD 
                                                   Max.-Head-Change                         Max.-Flux-Residual
  Residual-Control   Outer-Iter.   Inner-Iter.     Column Row Layer    Maximum-Head-Change  Column Row Layer    Maximum-Flux-Residual          L2-NORM 
          0                 1           2             2    2     1      -0.2707632471E-02       2    2    1        -0.1418008160E+00      0.2830474851E+00
          0                 2           2             2    2     1       0.2684581493E-03       2    2    1         0.1418006965E-01      0.2768925257E-01
          0                 3           1             2    2     1      -0.2394656203E-04       2    2    1        -0.1276204698E-02      0.2481496838E-02

    ------------------------------------------------
       NWT REQUIRED            3 OUTER ITERATIONS 
       AND A TOTAL OF          5 INNER ITERATIONS.
    ------------------------------------------------

 NO OUTPUT CONTROL FOR STRESS PERIOD   12   TIME STEP   21
 
 SOLVING FOR HEAD 
                                                   Max.-Head-Change                         Max.-Flux-Residual
  Residual-Control   Outer-Iter.   Inner-Iter.     Column Row Layer    Maximum-Head-Change  Column Row Layer    Maximum-Flux-Residual          L2-NORM 
          0                 1           2             2    2     1      -0.2684444083E-02       2    2    1        -0.1405797964E+00      0.2798737729E+00
          0                 2           2             2    2     1       0.2661509047E-03       2    2    1         0.1405796810E-01      0.2737795784E-01
          0                 3           1             2    2     1      -0.2374053501E-04       2    2    1        -0.1265215690E-02      0.2453643140E-02

    ------------------------------------------------
       NWT REQUIRED            3 OUTER ITERATIONS 
       AND A TOTAL OF          5 INNER ITERATIONS.
    ------------------------------------------------

 NO OUTPUT CONTROL FOR STRESS PERIOD   12   TIME STEP   22
 
 SOLVING FOR HEAD 
                                                   Max.-Head-Change                         Max.-Flux-Residual
  Residual-Control   Outer-Iter.   Inner-Iter.     Column Row Layer    Maximum-Head-Change  Column Row Layer    Maximum-Flux-Residual          L2-NORM 
          0                 1           2             2    2     1      -0.2661601922E-02       2    2    1        -0.1393770572E+00      0.2767887272E+00
          0                 2           2             2    2     1       0.2638781880E-03       2    2    1         0.1393769454E-01      0.2707505589E-01
          0                 3           1             2    2     1      -0.2353759083E-04       2    2    1        -0.1254391179E-02      0.2426497014E-02

    ------------------------------------------------
       NWT REQUIRED            3 OUTER ITERATIONS 
       AND A TOTAL OF          5 INNER ITERATIONS.
    ------------------------------------------------

 NO OUTPUT CONTROL FOR STRESS PERIOD   12   TIME STEP   23
 
 SOLVING FOR HEAD 
                                                   Max.-Head-Change                         Max.-Flux-Residual
  Residual-Control   Outer-Iter.   Inner-Iter.     Column Row Layer    Maximum-Head-Change  Column Row Layer    Maximum-Flux-Residual          L2-NORM 
          0                 1           2             2    2     1      -0.2639100573E-02       2    2    1        -0.1381922721E+00      0.2737963265E+00
          0                 2           2             2    2     1       0.2616393779E-03       2    2    1         0.1381921640E-01      0.2678071451E-01
          0                 3           1             2    2     1      -0.2333767645E-04       2    2    1        -0.1243728271E-02      0.2399979270E-02

    ------------------------------------------------
       NWT REQUIRED            3 OUTER ITERATIONS 
       AND A TOTAL OF          5 INNER ITERATIONS.
    ------------------------------------------------

 NO OUTPUT CONTROL FOR STRESS PERIOD   12   TIME STEP   24
 
 SOLVING FOR HEAD 
                                                   Max.-Head-Change                         Max.-Flux-Residual
  Residual-Control   Outer-Iter.   Inner-Iter.     Column Row Layer    Maximum-Head-Change  Column Row Layer    Maximum-Flux-Residual          L2-NORM 
          0                 1           2             2    2     1      -0.2616934393E-02       2    2    1        -0.1370251646E+00      0.2708742106E+00
          0                 2           2             2    2     1       0.2594355210E-03       2    2    1         0.1370250599E-01      0.2649301020E-01
          0                 3           1             2    2     1      -0.2314085867E-04       2    2    1        -0.1233224329E-02      0.2374174812E-02

    ------------------------------------------------
       NWT REQUIRED            3 OUTER ITERATIONS 
       AND A TOTAL OF          5 INNER ITERATIONS.
    ------------------------------------------------

 NO OUTPUT CONTROL FOR STRESS PERIOD   12   TIME STEP   25
 
 SOLVING FOR HEAD 
                                                   Max.-Head-Change                         Max.-Flux-Residual
  Residual-Control   Outer-Iter.   Inner-Iter.     Column Row Layer    Maximum-Head-Change  Column Row Layer    Maximum-Flux-Residual          L2-NORM 
          0                 1           2             2    2     1      -0.2595010655E-02       2    2    1        -0.1358707811E+00      0.2680488234E+00
          0                 2           2             2    2     1       0.2572583439E-03       2    2    1         0.1358706797E-01      0.2621488747E-01
          0                 3           1             2    2     1      -0.2294642627E-04       2    2    1        -0.1222834907E-02      0.2349201185E-02

    ------------------------------------------------
       NWT REQUIRED            3 OUTER ITERATIONS 
       AND A TOTAL OF          5 INNER ITERATIONS.
    ------------------------------------------------

 NO OUTPUT CONTROL FOR STRESS PERIOD   12   TIME STEP   26
 
 SOLVING FOR HEAD 
                                                   Max.-Head-Change                         Max.-Flux-Residual
  Residual-Control   Outer-Iter.   Inner-Iter.     Column Row Layer    Maximum-Head-Change  Column Row Layer    Maximum-Flux-Residual          L2-NORM 
          0                 1           2             2    2     1      -0.2573408798E-02       2    2    1        -0.1347334158E+00      0.2652932888E+00
          0                 2           2             2    2     1       0.2551127598E-03       2    2    1         0.1347333177E-01      0.2594314273E-01
          0                 3           1             2    2     1      -0.2275481639E-04       2    2    1        -0.1212598654E-02      0.2324822866E-02

    ------------------------------------------------
       NWT REQUIRED            3 OUTER ITERATIONS 
       AND A TOTAL OF          5 INNER ITERATIONS.
    ------------------------------------------------

 NO OUTPUT CONTROL FOR STRESS PERIOD   12   TIME STEP   27
 
 SOLVING FOR HEAD 
                                                   Max.-Head-Change                         Max.-Flux-Residual
  Residual-Control   Outer-Iter.   Inner-Iter.     Column Row Layer    Maximum-Head-Change  Column Row Layer    Maximum-Flux-Residual          L2-NORM 
          0                 1           2             2    2     1      -0.2552210828E-02       2    2    1        -0.1336173441E+00      0.2626151220E+00
          0                 2           2             2    2     1       0.2530062624E-03       2    2    1         0.1336172494E-01      0.2567893488E-01
          0                 3           1             2    2     1      -0.2256669654E-04       2    2    1        -0.1202554047E-02      0.2301175310E-02

    ------------------------------------------------
       NWT REQUIRED            3 OUTER ITERATIONS 
       AND A TOTAL OF          5 INNER ITERATIONS.
    ------------------------------------------------

 NO OUTPUT CONTROL FOR STRESS PERIOD   12   TIME STEP   28
 
 SOLVING FOR HEAD 
                                                   Max.-Head-Change                         Max.-Flux-Residual
  Residual-Control   Outer-Iter.   Inner-Iter.     Column Row Layer    Maximum-Head-Change  Column Row Layer    Maximum-Flux-Residual          L2-NORM 
          0                 1           2             2    2     1      -0.2535674333E-02       2    2    1        -0.1327452708E+00      0.2603413110E+00
          0                 2           2             2    2     1       0.2513617739E-03       2    2    1         0.1327451786E-01      0.2545565700E-01
          0                 3           1             2    2     1      -0.2241978361E-04       2    2    1        -0.1194705409E-02      0.2281089663E-02

    ------------------------------------------------
       NWT REQUIRED            3 OUTER ITERATIONS 
       AND A TOTAL OF          5 INNER ITERATIONS.
    ------------------------------------------------

 NO OUTPUT CONTROL FOR STRESS PERIOD   12   TIME STEP   29
 
 SOLVING FOR HEAD 
                                                   Max.-Head-Change                         Max.-Flux-Residual
  Residual-Control   Outer-Iter.   Inner-Iter.     Column Row Layer    Maximum-Head-Change  Column Row Layer    Maximum-Flux-Residual          L2-NORM 
          0                 1           2             2    2     1      -0.2568481796E-02       2    2    1        -0.1344549578E+00      0.2823934480E+00
          0                 2           2             2    2     1       0.2546077846E-03       2    2    1         0.1344548622E-01      0.2771528107E-01
          0                 3           1             2    2     1      -0.2270922722E-04       2    2    1        -0.1210092573E-02      0.2485510921E-02

    ------------------------------------------------
       NWT REQUIRED            3 OUTER ITERATIONS 
       AND A TOTAL OF          5 INNER ITERATIONS.
    ------------------------------------------------

 NO OUTPUT CONTROL FOR STRESS PERIOD   12   TIME STEP   30



 STREAM LISTING     PERIOD     12   STEP       30

 LAYER ROW COL. STREAM  RCH.  FLOW INTO     FLOW TO   FLOW OUT OF   OVRLND.     DIRECT     STREAM       STREAM     STREAM     STREAM   STREAMBED  STREAMBED
                SEG.NO.  NO.  STRM. RCH.    AQUIFER    STRM. RCH.    RUNOFF     PRECIP       ET          HEAD       DEPTH      WIDTH   CONDCTNC.   GRADIENT

   1    1    1     1     1    3.3000E+00  8.1313E-02   3.2187E+00  0.000E+00  0.000E+00  0.000E+00  1.09370E+03  6.519E-01  4.948E+00  2.227E-02  1.217E+00
   1    2    2     1     2    3.2187E+00  1.2488E-01   3.0938E+00  0.000E+00  0.000E+00  0.000E+00  1.08870E+03  6.446E-01  4.895E+00  3.426E-02  1.215E+00
   1    3    3     1     3    3.0938E+00  1.0547E-01   2.9883E+00  0.000E+00  0.000E+00  0.000E+00  1.08306E+03  6.363E-01  4.834E+00  2.901E-02  1.212E+00
   1    3    4     1     4    2.9883E+00  9.6268E-02   2.8921E+00  0.000E+00  0.000E+00  0.000E+00  1.07804E+03  6.289E-01  4.780E+00  2.653E-02  1.210E+00
   1    4    5     2     1    8.9207E-01  2.4566E-01   6.4640E-01  0.000E+00  0.000E+00  0.000E+00  1.07208E+03  1.495E-01  1.200E+01  7.800E-02  1.050E+00
   1    5    6     2     2    6.4640E-01  1.8736E-01   4.5904E-01  0.000E+00  0.000E+00  0.000E+00  1.06663E+03  1.226E-01  1.200E+01  6.000E-02  1.041E+00
   1    6    6     2     3    4.5904E-01  1.8575E-01   2.7329E-01  0.000E+00  0.000E+00  0.000E+00  1.06189E+03  9.580E-02  1.200E+01  6.000E-02  1.032E+00
   1    7    6     2     4    2.7329E-01  1.8377E-01   8.9523E-02  0.000E+00  0.000E+00  0.000E+00  1.05714E+03  6.285E-02  1.200E+01  6.000E-02  1.021E+00
   1    8    6     2     5    8.9523E-02  8.9523E-02   0.0000E+00  0.000E+00  0.000E+00  0.000E+00  1.05237E+03  9.257E-03  1.200E+01  6.000E-02  1.003E+00
   1    3    5     3     1    2.0000E+00  2.8252E-01   1.7175E+00  0.000E+00  0.000E+00  0.000E+00  1.07555E+03  1.909E+00  9.636E+00  7.227E-02  1.955E+00
   1    3    6     3     2    1.7175E+00  2.4905E-01   1.4684E+00  0.000E+00  0.000E+00  0.000E+00  1.07264E+03  1.727E+00  8.909E+00  6.682E-02  1.864E+00
   1    3    7     3     3    1.4684E+00  1.9718E-01   1.2712E+00  0.000E+00  0.000E+00  0.000E+00  1.06987E+03  1.555E+00  8.218E+00  5.547E-02  1.777E+00
   1    4    8     3     4    1.2712E+00  2.2567E-01   1.0456E+00  0.000E+00  0.000E+00  0.000E+00  1.06682E+03  1.364E+00  7.455E+00  6.709E-02  1.682E+00
   1    5    8     3     5    1.0456E+00  1.5790E-01   8.8768E-01  0.000E+00  0.000E+00  0.000E+00  1.06362E+03  1.164E+00  6.655E+00  4.991E-02  1.582E+00
   1    6    8     3     6    8.8768E-01  5.5980E-02   8.3170E-01  0.000E+00  0.000E+00  0.000E+00  1.06158E+03  1.036E+00  6.145E+00  1.844E-02  1.518E+00
   1    5   10     4     1    1.0000E+01  9.0919E-02   9.9091E+00  0.000E+00  0.000E+00  0.000E+00  1.07836E+03  6.368E-01  1.000E+01  2.500E-02  1.212E+00
   1    5    9     4     2    9.9091E+00  1.8158E-01   9.7275E+00  0.000E+00  0.000E+00  0.000E+00  1.07154E+03  6.315E-01  1.000E+01  5.000E-02  1.211E+00
   1    6    8     4     3    9.7275E+00  1.2689E-01   9.6006E+00  0.000E+00  0.000E+00  0.000E+00  1.06381E+03  6.256E-01  1.000E+01  3.500E-02  1.209E+00
   1    6    8     5     1    1.0432E+01  2.2686E-01   1.0205E+01  0.000E+00  0.000E+00  0.000E+00  1.05868E+03  6.790E-01  1.542E+01  6.166E-02  1.226E+00
   1    7    7     5     2    1.0205E+01  2.7894E-01   9.9265E+00  0.000E+00  0.000E+00  0.000E+00  1.05417E+03  6.732E-01  1.519E+01  7.594E-02  1.224E+00
   1    8    7     5     3    9.9265E+00  1.9221E-01   9.7343E+00  0.000E+00  0.000E+00  0.000E+00  1.04992E+03  6.676E-01  1.497E+01  5.241E-02  1.223E+00
   1    8    6     5     4    9.7343E+00  1.3577E-01   9.5985E+00  0.000E+00  0.000E+00  0.000E+00  1.04691E+03  6.637E-01  1.482E+01  3.706E-02  1.221E+00
   1    9    6     6     1    9.5985E+00  2.2097E-01   9.3776E+00  0.000E+00  0.000E+00  0.000E+00  1.04341E+03  6.828E-01  1.200E+01  6.000E-02  1.228E+00
   1   10    7     6     2    9.3776E+00  2.2039E-01   9.1572E+00  0.000E+00  0.000E+00  0.000E+00  1.03885E+03  6.732E-01  1.200E+01  6.000E-02  1.224E+00
   1   11    7     6     3    9.1572E+00  2.1981E-01   8.9374E+00  0.000E+00  0.000E+00  0.000E+00  1.03430E+03  6.636E-01  1.200E+01  6.000E-02  1.221E+00
   1   12    7     6     4    8.9374E+00  2.1923E-01   8.7181E+00  0.000E+00  0.000E+00  0.000E+00  1.02974E+03  6.539E-01  1.200E+01  6.000E-02  1.218E+00
   1   13    7     6     5    8.7181E+00 -1.1480E-01   8.8329E+00  0.000E+00  0.000E+00  0.000E+00  1.02656E+03  6.515E-01  1.200E+01  2.400E-01 -1.595E-01
   1   14    9     7     1    1.5000E+02  1.3382E+00   1.4866E+02  0.000E+00  0.000E+00  0.000E+00  1.03987E+03  2.288E+00  5.529E+01  5.593E-01  7.975E-01
   1   13    8     7     2    1.4866E+02  1.8375E+00   1.4682E+02  0.000E+00  0.000E+00  0.000E+00  1.03478E+03  2.279E+00  5.526E+01  6.148E-01  9.963E-01
   1   13    7     7     3    1.4682E+02  1.4803E+00   1.4534E+02  0.000E+00  0.000E+00  0.000E+00  1.02969E+03  2.270E+00  5.522E+01  5.584E-01  8.836E-01
   1   13    6     8     1    1.5418E+02  8.4608E-01   1.5333E+02  0.000E+00  0.000E+00  0.000E+00  1.02472E+03  2.843E+00  4.122E+01  4.201E-01  6.713E-01
   1   13    5     8     2    1.5333E+02  1.2231E-01   1.5321E+02  0.000E+00  0.000E+00  0.000E+00  1.01846E+03  2.840E+00  4.118E+01  4.196E-01  9.717E-02
   1   13    4     8     3    1.5321E+02 -2.6249E+00   1.5583E+02  0.000E+00  0.000E+00  0.000E+00  1.01222E+03  2.848E+00  4.130E+01  4.209E+00 -2.079E-01
   1   13    3     8     4    1.5583E+02 -3.7333E+00   1.5957E+02  0.000E+00  0.000E+00  0.000E+00  1.00600E+03  2.870E+00  4.162E+01  4.241E+00 -2.934E-01
   1   13    2     8     5    1.5957E+02 -2.6014E+00   1.6217E+02  0.000E+00  0.000E+00  0.000E+00  9.99767E+02  2.892E+00  4.193E+01  4.273E+00 -2.029E-01
   1   13    1     8     6    1.6217E+02 -1.9733E+00   1.6414E+02  0.000E+00  0.000E+00  0.000E+00  9.94782E+02  2.907E+00  4.215E+01  2.577E+00 -2.552E-01
   1    6    8     9     1    0.0000E+00  0.0000E+00   0.0000E+00  0.000E+00  0.000E+00  0.000E+00  1.07850E+03  0.000E+00  4.000E+00  0.000E+00  1.000E+00





UNSATURATED ZONE PACKAGE VOLUMETRIC BUDGET FOR  TIME STEP    30 STRESS PERIOD   12
  ------------------------------------------------------------------------------



     CUMULATIVE VOLUMES      L**3       RATES FOR THIS TIME STEP      L**3/T
     ------------------                 ------------------------

           IN:                                      IN:
           ---                                      ---
        INFILTRATION =    56192156.8887          INFILTRATION =       0.0000E+00

          OUT:                                     OUT:
          ----                                     ----
              UZF ET =    41671655.4652                UZF ET =           0.0117
        UZF RECHARGE =     2364656.3946          UZF RECHARGE =           0.0067

            IN - OUT =    12155845.0288              IN - OUT =          -0.0184

          STORAGE:                                 STORAGE:
          --------                                 --------
      STORAGE CHANGE =    12172990.5463        STORAGE CHANGE =          -0.0184

 PERCENT DISCREPANCY IS DIFFERENCE BETWEEN IN-OUT MINUS CHANGE IN STORAGE
 DIVIDED BY THE AVERAGE OF IN AND OUT TIMES 100

 PERCENT DISCREPANCY =          -0.01     PERCENT DISCREPANCY =          -0.06






1
  VOLUMETRIC BUDGET FOR ENTIRE MODEL AT END OF TIME STEP   30, STRESS PERIOD  12
  ------------------------------------------------------------------------------

     CUMULATIVE VOLUMES      L**3       RATES FOR THIS TIME STEP      L**3/T
     ------------------                 ------------------------

           IN:                                      IN:
           ---                                      ---
    AWU WELLS            =    11225853.0000      AWU WELLS            =           0.0000
    DIVERSION SEGMENTS   =    44893080.0000      DIVERSION SEGMENTS   =           0.0000
    GW IRRIGATION        =           0.0000      GW IRRIGATION        =           0.0000
    SW IRRIGATION        =           0.0000      SW IRRIGATION        =           0.0000
    EFFICIENCY FACTOR GW =           0.0000      EFFICIENCY FACTOR GW =           0.0000
    EFFICIENCY FACTOR SW =           0.0000      EFFICIENCY FACTOR SW =           0.0000

                TOTAL IN =    56118932.0000                  TOTAL IN =           0.0000

          OUT:                                     OUT:
          ----                                     ----
    AWU WELLS            =           0.0000      AWU WELLS            =           0.0000
    DIVERSION SEGMENTS   =           0.0000      DIVERSION SEGMENTS   =           0.0000
    GW IRRIGATION        =    11225853.0000      GW IRRIGATION        =           0.0000
    SW IRRIGATION        =    44893080.0000      SW IRRIGATION        =           0.0000
    EFFICIENCY FACTOR GW =           0.0000      EFFICIENCY FACTOR GW =           0.0000
    EFFICIENCY FACTOR SW =           0.0000      EFFICIENCY FACTOR SW =           0.0000

               TOTAL OUT =    56118932.0000                 TOTAL OUT =           0.0000

                IN - OUT =           0.0000                  IN - OUT =           0.0000

     PERCENT DISCREPANCY =           0.00         PERCENT DISCREPANCY =           0.00



1
  VOLUMETRIC BUDGET FOR ENTIRE MODEL AT END OF TIME STEP   30, STRESS PERIOD  12
  ------------------------------------------------------------------------------

     CUMULATIVE VOLUMES      L**3       RATES FOR THIS TIME STEP      L**3/T
     ------------------                 ------------------------

           IN:                                      IN:
           ---                                      ---
             STORAGE     =    52515076.0000               STORAGE     =           1.2405
       CONSTANT HEAD     =           0.0000         CONSTANT HEAD     =           0.0000
     HEAD DEP BOUNDS     =     8288509.0000       HEAD DEP BOUNDS     =           0.2859
      STREAM LEAKAGE     =   348735008.0000        STREAM LEAKAGE     =          10.2063
        UZF RECHARGE     =     2364655.0000          UZF RECHARGE     =       6.6987E-03
               GW ET     =           0.0000                 GW ET     =           0.0000
     SURFACE LEAKAGE     =           0.0000       SURFACE LEAKAGE     =           0.0000
    AWU WELLS            =           0.0000      AWU WELLS            =           0.0000

                TOTAL IN =   411903232.0000                  TOTAL IN =          11.7394

          OUT:                                     OUT:
          ----                                     ----
             STORAGE     =    62939836.0000               STORAGE     =           0.3942
       CONSTANT HEAD     =           0.0000         CONSTANT HEAD     =           0.0000
     HEAD DEP BOUNDS     =     8327640.5000       HEAD DEP BOUNDS     =           0.2868
      STREAM LEAKAGE     =   275232480.0000        STREAM LEAKAGE     =          11.0477
        UZF RECHARGE     =           0.0000          UZF RECHARGE     =           0.0000
               GW ET     =    54184408.0000                 GW ET     =       1.0031E-02
     SURFACE LEAKAGE     =           0.0000       SURFACE LEAKAGE     =           0.0000
    AWU WELLS            =    11225853.0000      AWU WELLS            =           0.0000

               TOTAL OUT =   411910240.0000                 TOTAL OUT =          11.7387

                IN - OUT =       -7008.0000                  IN - OUT =       6.8092E-04

     PERCENT DISCREPANCY =          -0.00         PERCENT DISCREPANCY =           0.01






         TIME SUMMARY AT END OF TIME STEP   30 IN STRESS PERIOD   12
                    SECONDS     MINUTES      HOURS       DAYS        YEARS
                    -----------------------------------------------------------
   TIME STEP LENGTH  87600.      1460.0      24.333      1.0139     2.77588E-03
 STRESS PERIOD TIME 2.62800E+06  43800.      730.00      30.417     8.32763E-02
         TOTAL TIME 2.89944E+07 4.83240E+05  8054.0      335.58     0.91878    
1
1
                            STRESS PERIOD NO.   13, LENGTH =   2628000.    
                            -----------------------------------------------

                              NUMBER OF TIME STEPS =    30

                               MULTIPLIER FOR DELT =     1.000

                            INITIAL TIME STEP SIZE =   87600.00    

 REUSING NON-PARAMETER GHB CELLS FROM LAST STRESS PERIOD

      2 GHB CELLS

 REUSING STREAM SEGMENT DATA FROM LAST STRESS PERIOD



            AREAL INFILTRATION RATE
 READING ON UNIT   19 WITH FORMAT: (10F4.0)            

            1           2           3           4           5           6           7           8           9          10
 ........................................................................................................................
   1    0.000       0.000       0.000       0.000       0.000       0.000       0.000       0.000       0.000       0.000    
   2    0.000       0.000       0.000       0.000       0.000       0.000       0.000       0.000       0.000       0.000    
   3    0.000       0.000       0.000       0.000       0.000       0.000       0.000       0.000       0.000       0.000    
   4    0.000       0.000       0.000       0.000       0.000       0.000       0.000       0.000       0.000       0.000    
   5    0.000       0.000       0.000       0.000       0.000       0.000       0.000       0.000       0.000       0.000    
   6    0.000       0.000       0.000       0.000       0.000       0.000       0.000       0.000       0.000       0.000    
   7    0.000       0.000       0.000       0.000       0.000       0.000       0.000       0.000       0.000       0.000    
   8    0.000       0.000       0.000       0.000       0.000       0.000       0.000       0.000       0.000       0.000    
   9    0.000       0.000       0.000       0.000       0.000       0.000       0.000       0.000       0.000       0.000    
  10    0.000       0.000       0.000       0.000       0.000       0.000       0.000       0.000       0.000       0.000    
  11    0.000       0.000       0.000       0.000       0.000       0.000       0.000       0.000       0.000       0.000    
  12    0.000       0.000       0.000       0.000       0.000       0.000       0.000       0.000       0.000       0.000    
  13    0.000       0.000       0.000       0.000       0.000       0.000       0.000       0.000       0.000       0.000    
  14    0.000       0.000       0.000       0.000       0.000       0.000       0.000       0.000       0.000       0.000    
  15    0.000       0.000       0.000       0.000       0.000       0.000       0.000       0.000       0.000       0.000    

                  ET RATE =  1.000000E-10

 USING ET EXTINCTION DEPTH FROM PREVIOUS STRESS PERIOD. CURRENT PERIOD IS:      13

 USING EXTINCTION WATER CONTENT FROM PREVIOUS STRESS PERIOD. CURRENT PERIOD IS:      13

 PROCESSING AWU STRESS PERIOD DATA

 READING AWU STRESS PERIOD DATA

 READING IRRIGATION STREAM

 READING IRRIGATION WELL

 READING SUPPLEMENTAL WEL

 END PROCESSING AWU STRESS PERIOD DATA OPTIONS
 
 SOLVING FOR HEAD 
                                                   Max.-Head-Change                         Max.-Flux-Residual
  Residual-Control   Outer-Iter.   Inner-Iter.     Column Row Layer    Maximum-Head-Change  Column Row Layer    Maximum-Flux-Residual          L2-NORM 
          0                 1           2             2    2     1      -0.2547732277E-02       2    2    1        -0.1333625365E+00      0.2782649789E+00
          0                 2           2             2    2     1       0.2525518343E-03       2    2    1         0.1333624440E-01      0.2730212343E-01
          0                 3           1             2    2     1      -0.2252585431E-04       2    2    1        -0.1200260819E-02      0.2448293642E-02

    ------------------------------------------------
       NWT REQUIRED            3 OUTER ITERATIONS 
       AND A TOTAL OF          5 INNER ITERATIONS.
    ------------------------------------------------

 NO OUTPUT CONTROL FOR STRESS PERIOD   13   TIME STEP    1
 
 SOLVING FOR HEAD 
                                                   Max.-Head-Change                         Max.-Flux-Residual
  Residual-Control   Outer-Iter.   Inner-Iter.     Column Row Layer    Maximum-Head-Change  Column Row Layer    Maximum-Flux-Residual          L2-NORM 
          0                 1           2             2    2     1      -0.2527196502E-02       2    2    1        -0.1322812854E+00      0.2743675992E+00
          0                 2           2             2    2     1       0.2505192544E-03       2    2    1         0.1322811958E-01      0.2691278920E-01
          0                 3           1             2    2     1      -0.2234456642E-04       2    2    1        -0.1190529590E-02      0.2413260139E-02

    ------------------------------------------------
       NWT REQUIRED            3 OUTER ITERATIONS 
       AND A TOTAL OF          5 INNER ITERATIONS.
    ------------------------------------------------

 NO OUTPUT CONTROL FOR STRESS PERIOD   13   TIME STEP    2
 
 SOLVING FOR HEAD 
                                                   Max.-Head-Change                         Max.-Flux-Residual
  Residual-Control   Outer-Iter.   Inner-Iter.     Column Row Layer    Maximum-Head-Change  Column Row Layer    Maximum-Flux-Residual          L2-NORM 
          0                 1           2             2    2     1      -0.2506865648E-02       2    2    1        -0.1312110115E+00      0.2706865621E+00
          0                 2           2             2    2     1       0.2485040493E-03       2    2    1         0.1312109250E-01      0.2654523833E-01
          0                 3           1             2    2     1      -0.2216482769E-04       2    2    1        -0.1180897159E-02      0.2380209439E-02

    ------------------------------------------------
       NWT REQUIRED            3 OUTER ITERATIONS 
       AND A TOTAL OF          5 INNER ITERATIONS.
    ------------------------------------------------

 NO OUTPUT CONTROL FOR STRESS PERIOD   13   TIME STEP    3
 
 SOLVING FOR HEAD 
                                                   Max.-Head-Change                         Max.-Flux-Residual
  Residual-Control   Outer-Iter.   Inner-Iter.     Column Row Layer    Maximum-Head-Change  Column Row Layer    Maximum-Flux-Residual          L2-NORM 
          0                 1           2             2    2     1      -0.2486913171E-02       2    2    1        -0.1301606734E+00      0.2671927049E+00
          0                 2           2             2    2     1       0.2465263391E-03       2    2    1         0.1301605898E-01      0.2619662533E-01
          0                 3           1             2    2     1      -0.2198843287E-04       2    2    1        -0.1171444146E-02      0.2348807981E-02

    ------------------------------------------------
       NWT REQUIRED            3 OUTER ITERATIONS 
       AND A TOTAL OF          5 INNER ITERATIONS.
    ------------------------------------------------

 NO OUTPUT CONTROL FOR STRESS PERIOD   13   TIME STEP    4
 
 SOLVING FOR HEAD 
                                                   Max.-Head-Change                         Max.-Flux-Residual
  Residual-Control   Outer-Iter.   Inner-Iter.     Column Row Layer    Maximum-Head-Change  Column Row Layer    Maximum-Flux-Residual          L2-NORM 
          0                 1           2             2    2     1      -0.2467246669E-02       2    2    1        -0.1291253935E+00      0.2638882876E+00
          0                 2           2             2    2     1       0.2445769698E-03       2    2    1         0.1291253125E-01      0.2586728998E-01
          0                 3           1             2    2     1      -0.2181456562E-04       2    2    1        -0.1162126643E-02      0.2319190471E-02

    ------------------------------------------------
       NWT REQUIRED            3 OUTER ITERATIONS 
       AND A TOTAL OF          5 INNER ITERATIONS.
    ------------------------------------------------

 NO OUTPUT CONTROL FOR STRESS PERIOD   13   TIME STEP    5
 
 SOLVING FOR HEAD 
                                                   Max.-Head-Change                         Max.-Flux-Residual
  Residual-Control   Outer-Iter.   Inner-Iter.     Column Row Layer    Maximum-Head-Change  Column Row Layer    Maximum-Flux-Residual          L2-NORM 
          0                 1           2             2    2     1      -0.2447774486E-02       2    2    1        -0.1281003773E+00      0.2607409970E+00
          0                 2           2             2    2     1       0.2426468616E-03       2    2    1         0.1281002992E-01      0.2555390570E-01
          0                 3           1             2    2     1      -0.2164241674E-04       2    2    1        -0.1152901531E-02      0.2291012091E-02

    ------------------------------------------------
       NWT REQUIRED            3 OUTER ITERATIONS 
       AND A TOTAL OF          5 INNER ITERATIONS.
    ------------------------------------------------

 NO OUTPUT CONTROL FOR STRESS PERIOD   13   TIME STEP    6
 
 SOLVING FOR HEAD 
                                                   Max.-Head-Change                         Max.-Flux-Residual
  Residual-Control   Outer-Iter.   Inner-Iter.     Column Row Layer    Maximum-Head-Change  Column Row Layer    Maximum-Flux-Residual          L2-NORM 
          0                 1           2             2    2     1      -0.2428579961E-02       2    2    1        -0.1270900189E+00      0.2577302434E+00
          0                 2           2             2    2     1       0.2407442682E-03       2    2    1         0.1270899433E-01      0.2525420475E-01
          0                 3           1             2    2     1      -0.2147272126E-04       2    2    1        -0.1143808334E-02      0.2264063570E-02

    ------------------------------------------------
       NWT REQUIRED            3 OUTER ITERATIONS 
       AND A TOTAL OF          5 INNER ITERATIONS.
    ------------------------------------------------

 NO OUTPUT CONTROL FOR STRESS PERIOD   13   TIME STEP    7
 
 SOLVING FOR HEAD 
                                                   Max.-Head-Change                         Max.-Flux-Residual
  Residual-Control   Outer-Iter.   Inner-Iter.     Column Row Layer    Maximum-Head-Change  Column Row Layer    Maximum-Flux-Residual          L2-NORM 
          0                 1           2             2    2     1      -0.2409659050E-02       2    2    1        -0.1260940678E+00      0.2548651750E+00
          0                 2           2             2    2     1       0.2388687913E-03       2    2    1         0.1260939946E-01      0.2496936917E-01
          0                 3           1             2    2     1      -0.2130544481E-04       2    2    1        -0.1134844801E-02      0.2238385733E-02

    ------------------------------------------------
       NWT REQUIRED            3 OUTER ITERATIONS 
       AND A TOTAL OF          5 INNER ITERATIONS.
    ------------------------------------------------

 NO OUTPUT CONTROL FOR STRESS PERIOD   13   TIME STEP    8
 
 SOLVING FOR HEAD 
                                                   Max.-Head-Change                         Max.-Flux-Residual
  Residual-Control   Outer-Iter.   Inner-Iter.     Column Row Layer    Maximum-Head-Change  Column Row Layer    Maximum-Flux-Residual          L2-NORM 
          0                 1           2             2    2     1      -0.2391007469E-02       2    2    1        -0.1251123139E+00      0.2521220529E+00
          0                 2           2             2    2     1       0.2370200043E-03       2    2    1         0.1251122432E-01      0.2469679195E-01
          0                 3           1             2    2     1      -0.2114054760E-04       2    2    1        -0.1126009024E-02      0.2213896280E-02

    ------------------------------------------------
       NWT REQUIRED            3 OUTER ITERATIONS 
       AND A TOTAL OF          5 INNER ITERATIONS.
    ------------------------------------------------

 NO OUTPUT CONTROL FOR STRESS PERIOD   13   TIME STEP    9
 
 SOLVING FOR HEAD 
                                                   Max.-Head-Change                         Max.-Flux-Residual
  Residual-Control   Outer-Iter.   Inner-Iter.     Column Row Layer    Maximum-Head-Change  Column Row Layer    Maximum-Flux-Residual          L2-NORM 
          0                 1           2             2    2     1      -0.2372620886E-02       2    2    1        -0.1241445350E+00      0.2494865823E+00
          0                 2           2             2    2     1       0.2351974813E-03       2    2    1         0.1241444668E-01      0.2443521702E-01
          0                 3           1             2    2     1      -0.2097799378E-04       2    2    1        -0.1117299035E-02      0.2190440840E-02

    ------------------------------------------------
       NWT REQUIRED            3 OUTER ITERATIONS 
       AND A TOTAL OF          5 INNER ITERATIONS.
    ------------------------------------------------

 NO OUTPUT CONTROL FOR STRESS PERIOD   13   TIME STEP   10
 
 SOLVING FOR HEAD 
                                                   Max.-Head-Change                         Max.-Flux-Residual
  Residual-Control   Outer-Iter.   Inner-Iter.     Column Row Layer    Maximum-Head-Change  Column Row Layer    Maximum-Flux-Residual          L2-NORM 
          0                 1           2             2    2     1      -0.2354495496E-02       2    2    1        -0.1231905064E+00      0.2469585836E+00
          0                 2           2             2    2     1       0.2334008437E-03       2    2    1         0.1231904403E-01      0.2418451253E-01
          0                 3           1             2    2     1      -0.2081774896E-04       2    2    1        -0.1108712841E-02      0.2167948028E-02

    ------------------------------------------------
       NWT REQUIRED            3 OUTER ITERATIONS 
       AND A TOTAL OF          5 INNER ITERATIONS.
    ------------------------------------------------

 NO OUTPUT CONTROL FOR STRESS PERIOD   13   TIME STEP   11
 
 SOLVING FOR HEAD 
                                                   Max.-Head-Change                         Max.-Flux-Residual
  Residual-Control   Outer-Iter.   Inner-Iter.     Column Row Layer    Maximum-Head-Change  Column Row Layer    Maximum-Flux-Residual          L2-NORM 
          0                 1           2             2    2     1      -0.2336539339E-02       2    2    1        -0.1222454560E+00      0.2445318790E+00
          0                 2           2             2    2     1       0.2316209781E-03       2    2    1         0.1222453919E-01      0.2394399938E-01
          0                 3           1             2    2     1      -0.2065899877E-04       2    2    1        -0.1100207374E-02      0.2146264684E-02

    ------------------------------------------------
       NWT REQUIRED            3 OUTER ITERATIONS 
       AND A TOTAL OF          5 INNER ITERATIONS.
    ------------------------------------------------

 NO OUTPUT CONTROL FOR STRESS PERIOD   13   TIME STEP   12
 
 SOLVING FOR HEAD 
                                                   Max.-Head-Change                         Max.-Flux-Residual
  Residual-Control   Outer-Iter.   Inner-Iter.     Column Row Layer    Maximum-Head-Change  Column Row Layer    Maximum-Flux-Residual          L2-NORM 
          0                 1           2             2    2     1      -0.2318924335E-02       2    2    1        -0.1213183358E+00      0.2421907909E+00
          0                 2           2             2    2     1       0.2298749221E-03       2    2    1         0.1213182741E-01      0.2371208781E-01
          0                 3           1             2    2     1      -0.2050326463E-04       2    2    1        -0.1091863331E-02      0.2125431292E-02

    ------------------------------------------------
       NWT REQUIRED            3 OUTER ITERATIONS 
       AND A TOTAL OF          5 INNER ITERATIONS.
    ------------------------------------------------

 NO OUTPUT CONTROL FOR STRESS PERIOD   13   TIME STEP   13
 
 SOLVING FOR HEAD 
                                                   Max.-Head-Change                         Max.-Flux-Residual
  Residual-Control   Outer-Iter.   Inner-Iter.     Column Row Layer    Maximum-Head-Change  Column Row Layer    Maximum-Flux-Residual          L2-NORM 
          0                 1           2             2    2     1      -0.2301470921E-02       2    2    1        -0.1203997685E+00      0.2399326208E+00
          0                 2           2             2    2     1       0.2281448799E-03       2    2    1         0.1203997089E-01      0.2348862145E-01
          0                 3           1             2    2     1      -0.2034895882E-04       2    2    1        -0.1083596252E-02      0.2105354515E-02

    ------------------------------------------------
       NWT REQUIRED            3 OUTER ITERATIONS 
       AND A TOTAL OF          5 INNER ITERATIONS.
    ------------------------------------------------

 NO OUTPUT CONTROL FOR STRESS PERIOD   13   TIME STEP   14
 
 SOLVING FOR HEAD 
                                                   Max.-Head-Change                         Max.-Flux-Residual
  Residual-Control   Outer-Iter.   Inner-Iter.     Column Row Layer    Maximum-Head-Change  Column Row Layer    Maximum-Flux-Residual          L2-NORM 
          0                 1           2             2    2     1      -0.2284263285E-02       2    2    1        -0.1194941603E+00      0.2377501648E+00
          0                 2           2             2    2     1       0.2264391964E-03       2    2    1         0.1194941026E-01      0.2327282622E-01
          0                 3           1             2    2     1      -0.2019682523E-04       2    2    1        -0.1075445793E-02      0.2085975182E-02

    ------------------------------------------------
       NWT REQUIRED            3 OUTER ITERATIONS 
       AND A TOTAL OF          5 INNER ITERATIONS.
    ------------------------------------------------

 NO OUTPUT CONTROL FOR STRESS PERIOD   13   TIME STEP   15
 
 SOLVING FOR HEAD 
                                                   Max.-Head-Change                         Max.-Flux-Residual
  Residual-Control   Outer-Iter.   Inner-Iter.     Column Row Layer    Maximum-Head-Change  Column Row Layer    Maximum-Flux-Residual          L2-NORM 
          0                 1           2             2    2     1      -0.2267297973E-02       2    2    1        -0.1186013049E+00      0.2356418844E+00
          0                 2           2             2    2     1       0.2247575275E-03       2    2    1         0.1186012495E-01      0.2306447393E-01
          0                 3           1             2    2     1      -0.2004683339E-04       2    2    1        -0.1067410121E-02      0.2067257959E-02

    ------------------------------------------------
       NWT REQUIRED            3 OUTER ITERATIONS 
       AND A TOTAL OF          5 INNER ITERATIONS.
    ------------------------------------------------

 NO OUTPUT CONTROL FOR STRESS PERIOD   13   TIME STEP   16
 
 SOLVING FOR HEAD 
                                                   Max.-Head-Change                         Max.-Flux-Residual
  Residual-Control   Outer-Iter.   Inner-Iter.     Column Row Layer    Maximum-Head-Change  Column Row Layer    Maximum-Flux-Residual          L2-NORM 
          0                 1           2             2    2     1      -0.2250571132E-02       2    2    1        -0.1177210233E+00      0.2336035859E+00
          0                 2           2             2    2     1       0.2230994910E-03       2    2    1         0.1177209696E-01      0.2286322636E-01
          0                 3           1             2    2     1      -0.1989894966E-04       2    2    1        -0.1059487610E-02      0.2049169911E-02

    ------------------------------------------------
       NWT REQUIRED            3 OUTER ITERATIONS 
       AND A TOTAL OF          5 INNER ITERATIONS.
    ------------------------------------------------

 NO OUTPUT CONTROL FOR STRESS PERIOD   13   TIME STEP   17
 
 SOLVING FOR HEAD 
                                                   Max.-Head-Change                         Max.-Flux-Residual
  Residual-Control   Outer-Iter.   Inner-Iter.     Column Row Layer    Maximum-Head-Change  Column Row Layer    Maximum-Flux-Residual          L2-NORM 
          0                 1           2             2    2     1      -0.2234078649E-02       2    2    1        -0.1168531155E+00      0.2316185757E+00
          0                 2           2             2    2     1       0.2214646812E-03       2    2    1         0.1168530638E-01      0.2266733619E-01
          0                 3           1             2    2     1      -0.1975313696E-04       2    2    1        -0.1051676457E-02      0.2031609484E-02

    ------------------------------------------------
       NWT REQUIRED            3 OUTER ITERATIONS 
       AND A TOTAL OF          5 INNER ITERATIONS.
    ------------------------------------------------

 NO OUTPUT CONTROL FOR STRESS PERIOD   13   TIME STEP   18
 
 SOLVING FOR HEAD 
                                                   Max.-Head-Change                         Max.-Flux-Residual
  Residual-Control   Outer-Iter.   Inner-Iter.     Column Row Layer    Maximum-Head-Change  Column Row Layer    Maximum-Flux-Residual          L2-NORM 
          0                 1           2             2    2     1      -0.2217817207E-02       2    2    1        -0.1159973681E+00      0.2297071970E+00
          0                 2           2             2    2     1       0.2198527699E-03       2    2    1         0.1159973180E-01      0.2247893783E-01
          0                 3           1             2    2     1      -0.1960936680E-04       2    2    1        -0.1043974749E-02      0.2014706666E-02

    ------------------------------------------------
       NWT REQUIRED            3 OUTER ITERATIONS 
       AND A TOTAL OF          5 INNER ITERATIONS.
    ------------------------------------------------

 NO OUTPUT CONTROL FOR STRESS PERIOD   13   TIME STEP   19
 
 SOLVING FOR HEAD 
                                                   Max.-Head-Change                         Max.-Flux-Residual
  Residual-Control   Outer-Iter.   Inner-Iter.     Column Row Layer    Maximum-Head-Change  Column Row Layer    Maximum-Flux-Residual          L2-NORM 
          0                 1           2             2    2     1      -0.2201696164E-02       2    2    1        -0.1151490349E+00      0.2278508408E+00
          0                 2           2             2    2     1       0.2182547712E-03       2    2    1         0.1151489867E-01      0.2229604673E-01
          0                 3           1             2    2     1      -0.1946683711E-04       2    2    1        -0.1036339766E-02      0.1998312880E-02

    ------------------------------------------------
       NWT REQUIRED            3 OUTER ITERATIONS 
       AND A TOTAL OF          5 INNER ITERATIONS.
    ------------------------------------------------

 NO OUTPUT CONTROL FOR STRESS PERIOD   13   TIME STEP   20
 
 SOLVING FOR HEAD 
                                                   Max.-Head-Change                         Max.-Flux-Residual
  Residual-Control   Outer-Iter.   Inner-Iter.     Column Row Layer    Maximum-Head-Change  Column Row Layer    Maximum-Flux-Residual          L2-NORM 
          0                 1           2             2    2     1      -0.2185887095E-02       2    2    1        -0.1143171348E+00      0.2260413548E+00
          0                 2           2             2    2     1       0.2166876972E-03       2    2    1         0.1143170884E-01      0.2211453548E-01
          0                 3           1             2    2     1      -0.1932706534E-04       2    2    1        -0.1028852685E-02      0.1981985924E-02

    ------------------------------------------------
       NWT REQUIRED            3 OUTER ITERATIONS 
       AND A TOTAL OF          5 INNER ITERATIONS.
    ------------------------------------------------

 NO OUTPUT CONTROL FOR STRESS PERIOD   13   TIME STEP   21
 
 SOLVING FOR HEAD 
                                                   Max.-Head-Change                         Max.-Flux-Residual
  Residual-Control   Outer-Iter.   Inner-Iter.     Column Row Layer    Maximum-Head-Change  Column Row Layer    Maximum-Flux-Residual          L2-NORM 
          0                 1           2             2    2     1      -0.2170210898E-02       2    2    1        -0.1134922741E+00      0.2242906604E+00
          0                 2           2             2    2     1       0.2151337835E-03       2    2    1         0.1134922294E-01      0.2194557091E-01
          0                 3           1             2    2     1      -0.1918846846E-04       2    2    1        -0.1021428962E-02      0.1966801809E-02

    ------------------------------------------------
       NWT REQUIRED            3 OUTER ITERATIONS 
       AND A TOTAL OF          5 INNER ITERATIONS.
    ------------------------------------------------

 NO OUTPUT CONTROL FOR STRESS PERIOD   13   TIME STEP   22
 
 SOLVING FOR HEAD 
                                                   Max.-Head-Change                         Max.-Flux-Residual
  Residual-Control   Outer-Iter.   Inner-Iter.     Column Row Layer    Maximum-Head-Change  Column Row Layer    Maximum-Flux-Residual          L2-NORM 
          0                 1           2             2    2     1      -0.2154752677E-02       2    2    1        -0.1126788824E+00      0.2225905845E+00
          0                 2           2             2    2     1       0.2136014743E-03       2    2    1         0.1126788392E-01      0.2177842444E-01
          0                 3           1             2    2     1      -0.1905179771E-04       2    2    1        -0.1014108455E-02      0.1951868455E-02

    ------------------------------------------------
       NWT REQUIRED            3 OUTER ITERATIONS 
       AND A TOTAL OF          5 INNER ITERATIONS.
    ------------------------------------------------

 NO OUTPUT CONTROL FOR STRESS PERIOD   13   TIME STEP   23
 
 SOLVING FOR HEAD 
                                                   Max.-Head-Change                         Max.-Flux-Residual
  Residual-Control   Outer-Iter.   Inner-Iter.     Column Row Layer    Maximum-Head-Change  Column Row Layer    Maximum-Flux-Residual          L2-NORM 
          0                 1           2             2    2     1      -0.2139508989E-02       2    2    1        -0.1118768008E+00      0.2209271440E+00
          0                 2           2             2    2     1       0.2120904283E-03       2    2    1         0.1118767591E-01      0.2161492580E-01
          0                 3           1             2    2     1      -0.1891702338E-04       2    2    1        -0.1006889747E-02      0.1937171075E-02

    ------------------------------------------------
       NWT REQUIRED            3 OUTER ITERATIONS 
       AND A TOTAL OF          5 INNER ITERATIONS.
    ------------------------------------------------

 NO OUTPUT CONTROL FOR STRESS PERIOD   13   TIME STEP   24
 
 SOLVING FOR HEAD 
                                                   Max.-Head-Change                         Max.-Flux-Residual
  Residual-Control   Outer-Iter.   Inner-Iter.     Column Row Layer    Maximum-Head-Change  Column Row Layer    Maximum-Flux-Residual          L2-NORM 
          0                 1           2             2    2     1      -0.2124476885E-02       2    2    1        -0.1110858508E+00      0.2193170791E+00
          0                 2           2             2    2     1       0.2106003494E-03       2    2    1         0.1110858106E-01      0.2145690525E-01
          0                 3           1             2    2     1      -0.1878411895E-04       2    2    1        -0.9997712091E-03      0.1923006010E-02

    ------------------------------------------------
       NWT REQUIRED            3 OUTER ITERATIONS 
       AND A TOTAL OF          5 INNER ITERATIONS.
    ------------------------------------------------

 NO OUTPUT CONTROL FOR STRESS PERIOD   13   TIME STEP   25
 
 SOLVING FOR HEAD 
                                                   Max.-Head-Change                         Max.-Flux-Residual
  Residual-Control   Outer-Iter.   Inner-Iter.     Column Row Layer    Maximum-Head-Change  Column Row Layer    Maximum-Flux-Residual          L2-NORM 
          0                 1           2             2    2     1      -0.2109652647E-02       2    2    1        -0.1103058796E+00      0.2177439653E+00
          0                 2           2             2    2     1       0.2091308732E-03       2    2    1         0.1103058411E-01      0.2129152975E-01
          0                 3           1             2    2     1      -0.1865305174E-04       2    2    1        -0.9927514749E-03      0.1904385317E-02

    ------------------------------------------------
       NWT REQUIRED            3 OUTER ITERATIONS 
       AND A TOTAL OF          5 INNER ITERATIONS.
    ------------------------------------------------

 NO OUTPUT CONTROL FOR STRESS PERIOD   13   TIME STEP   26
 
 SOLVING FOR HEAD 
                                                   Max.-Head-Change                         Max.-Flux-Residual
  Residual-Control   Outer-Iter.   Inner-Iter.     Column Row Layer    Maximum-Head-Change  Column Row Layer    Maximum-Flux-Residual          L2-NORM 
          0                 1           2             2    2     1      -0.2095033033E-02       2    2    1        -0.1095366940E+00      0.2162165578E+00
          0                 2           2             2    2     1       0.2076816742E-03       2    2    1         0.1095366567E-01      0.2110649648E-01
          0                 3           1             2    2     1      -0.1852379328E-04       2    2    1        -0.9858288287E-03      0.1890575497E-02

    ------------------------------------------------
       NWT REQUIRED            3 OUTER ITERATIONS 
       AND A TOTAL OF          5 INNER ITERATIONS.
    ------------------------------------------------

 NO OUTPUT CONTROL FOR STRESS PERIOD   13   TIME STEP   27
 
 SOLVING FOR HEAD 
                                                   Max.-Head-Change                         Max.-Flux-Residual
  Residual-Control   Outer-Iter.   Inner-Iter.     Column Row Layer    Maximum-Head-Change  Column Row Layer    Maximum-Flux-Residual          L2-NORM 
          0                 1           2             2    2     1      -0.2080527839E-02       2    2    1        -0.1087735527E+00      0.2147225134E+00
          0                 2           2             2    2     1       0.2062438164E-03       2    2    1         0.1087735166E-01      0.2096227737E-01
          0                 3           1             2    2     1      -0.1839554664E-04       2    2    1        -0.9789605759E-03      0.1877707522E-02

    ------------------------------------------------
       NWT REQUIRED            3 OUTER ITERATIONS 
       AND A TOTAL OF          5 INNER ITERATIONS.
    ------------------------------------------------

 NO OUTPUT CONTROL FOR STRESS PERIOD   13   TIME STEP   28
 
 SOLVING FOR HEAD 
                                                   Max.-Head-Change                         Max.-Flux-Residual
  Residual-Control   Outer-Iter.   Inner-Iter.     Column Row Layer    Maximum-Head-Change  Column Row Layer    Maximum-Flux-Residual          L2-NORM 
          0                 1           2             2    2     1      -0.2089913031E-02       2    2    1        -0.1092604178E+00      0.2373127123E+00
          0                 2           2             2    2     1       0.2071732759E-03       2    2    1         0.1092603810E-01      0.2327864132E-01
          0                 3           1             2    2     1      -0.1847842293E-04       2    2    1        -0.9833423521E-03      0.2087210091E-02

    ------------------------------------------------
       NWT REQUIRED            3 OUTER ITERATIONS 
       AND A TOTAL OF          5 INNER ITERATIONS.
    ------------------------------------------------

 NO OUTPUT CONTROL FOR STRESS PERIOD   13   TIME STEP   29
 
 SOLVING FOR HEAD 
                                                   Max.-Head-Change                         Max.-Flux-Residual
  Residual-Control   Outer-Iter.   Inner-Iter.     Column Row Layer    Maximum-Head-Change  Column Row Layer    Maximum-Flux-Residual          L2-NORM 
          0                 1           2             6    8     1      -0.2189908799E-02       6    8    1        -0.1179932470E+00      0.2675028656E+00
          0                 2           2             6    8     1       0.2169998153E-03       6    8    1         0.1179930463E-01      0.2635642743E-01
          0                 3           1             6    8     1      -0.1935260902E-04       6    8    1        -0.1061937757E-02      0.2365242654E-02

    ------------------------------------------------
       NWT REQUIRED            3 OUTER ITERATIONS 
       AND A TOTAL OF          5 INNER ITERATIONS.
    ------------------------------------------------

 NO OUTPUT CONTROL FOR STRESS PERIOD   13   TIME STEP   30



 STREAM LISTING     PERIOD     13   STEP       30

 LAYER ROW COL. STREAM  RCH.  FLOW INTO     FLOW TO   FLOW OUT OF   OVRLND.     DIRECT     STREAM       STREAM     STREAM     STREAM   STREAMBED  STREAMBED
                SEG.NO.  NO.  STRM. RCH.    AQUIFER    STRM. RCH.    RUNOFF     PRECIP       ET          HEAD       DEPTH      WIDTH   CONDCTNC.   GRADIENT

   1    1    1     1     1    3.1000E+00  7.9303E-02   3.0207E+00  0.000E+00  0.000E+00  0.000E+00  1.09369E+03  6.377E-01  4.844E+00  2.180E-02  1.213E+00
   1    2    2     1     2    3.0207E+00  1.2174E-01   2.8990E+00  0.000E+00  0.000E+00  0.000E+00  1.08869E+03  6.304E-01  4.791E+00  3.353E-02  1.210E+00
   1    3    3     1     3    2.8990E+00  1.0276E-01   2.7962E+00  0.000E+00  0.000E+00  0.000E+00  1.08304E+03  6.219E-01  4.729E+00  2.837E-02  1.207E+00
   1    3    4     1     4    2.7962E+00  9.3747E-02   2.7024E+00  0.000E+00  0.000E+00  0.000E+00  1.07802E+03  6.144E-01  4.673E+00  2.594E-02  1.205E+00
   1    4    5     2     1    7.0245E-01  2.4385E-01   4.5860E-01  0.000E+00  0.000E+00  0.000E+00  1.07206E+03  1.263E-01  1.200E+01  7.800E-02  1.042E+00
   1    5    6     2     2    4.5860E-01  1.8574E-01   2.7285E-01  0.000E+00  0.000E+00  0.000E+00  1.06661E+03  9.573E-02  1.200E+01  6.000E-02  1.032E+00
   1    6    6     2     3    2.7285E-01  1.8377E-01   8.9086E-02  0.000E+00  0.000E+00  0.000E+00  1.06186E+03  6.276E-02  1.200E+01  6.000E-02  1.021E+00
   1    7    6     2     4    8.9086E-02  8.9086E-02   0.0000E+00  0.000E+00  0.000E+00  0.000E+00  1.05708E+03  9.230E-03  1.200E+01  6.000E-02  1.003E+00
   1    8    6     2     5    0.0000E+00  0.0000E+00   0.0000E+00  0.000E+00  0.000E+00  0.000E+00  1.05236E+03  0.000E+00  1.200E+01  6.000E-02  1.000E+00
   1    3    5     3     1    2.0000E+00  2.8252E-01   1.7175E+00  0.000E+00  0.000E+00  0.000E+00  1.07555E+03  1.909E+00  9.636E+00  7.227E-02  1.955E+00
   1    3    6     3     2    1.7175E+00  2.4905E-01   1.4684E+00  0.000E+00  0.000E+00  0.000E+00  1.07264E+03  1.727E+00  8.909E+00  6.682E-02  1.864E+00
   1    3    7     3     3    1.4684E+00  1.9718E-01   1.2712E+00  0.000E+00  0.000E+00  0.000E+00  1.06987E+03  1.555E+00  8.218E+00  5.547E-02  1.777E+00
   1    4    8     3     4    1.2712E+00  2.2567E-01   1.0456E+00  0.000E+00  0.000E+00  0.000E+00  1.06682E+03  1.364E+00  7.455E+00  6.709E-02  1.682E+00
   1    5    8     3     5    1.0456E+00  1.5790E-01   8.8768E-01  0.000E+00  0.000E+00  0.000E+00  1.06362E+03  1.164E+00  6.655E+00  4.991E-02  1.582E+00
   1    6    8     3     6    8.8768E-01  5.5980E-02   8.3170E-01  0.000E+00  0.000E+00  0.000E+00  1.06158E+03  1.036E+00  6.145E+00  1.844E-02  1.518E+00
   1    5   10     4     1    1.0000E+01  9.0919E-02   9.9091E+00  0.000E+00  0.000E+00  0.000E+00  1.07836E+03  6.368E-01  1.000E+01  2.500E-02  1.212E+00
   1    5    9     4     2    9.9091E+00  1.8158E-01   9.7275E+00  0.000E+00  0.000E+00  0.000E+00  1.07154E+03  6.315E-01  1.000E+01  5.000E-02  1.211E+00
   1    6    8     4     3    9.7275E+00  1.2689E-01   9.6006E+00  0.000E+00  0.000E+00  0.000E+00  1.06381E+03  6.256E-01  1.000E+01  3.500E-02  1.209E+00
   1    6    8     5     1    1.0432E+01  2.2686E-01   1.0205E+01  0.000E+00  0.000E+00  0.000E+00  1.05868E+03  6.790E-01  1.542E+01  6.166E-02  1.226E+00
   1    7    7     5     2    1.0205E+01  2.7894E-01   9.9265E+00  0.000E+00  0.000E+00  0.000E+00  1.05417E+03  6.732E-01  1.519E+01  7.594E-02  1.224E+00
   1    8    7     5     3    9.9265E+00  1.9221E-01   9.7343E+00  0.000E+00  0.000E+00  0.000E+00  1.04992E+03  6.676E-01  1.497E+01  5.241E-02  1.223E+00
   1    8    6     5     4    9.7343E+00  1.3577E-01   9.5985E+00  0.000E+00  0.000E+00  0.000E+00  1.04691E+03  6.637E-01  1.482E+01  3.706E-02  1.221E+00
   1    9    6     6     1    9.5985E+00  2.2097E-01   9.3776E+00  0.000E+00  0.000E+00  0.000E+00  1.04341E+03  6.828E-01  1.200E+01  6.000E-02  1.228E+00
   1   10    7     6     2    9.3776E+00  2.2039E-01   9.1572E+00  0.000E+00  0.000E+00  0.000E+00  1.03885E+03  6.732E-01  1.200E+01  6.000E-02  1.224E+00
   1   11    7     6     3    9.1572E+00  2.1981E-01   8.9374E+00  0.000E+00  0.000E+00  0.000E+00  1.03430E+03  6.636E-01  1.200E+01  6.000E-02  1.221E+00
   1   12    7     6     4    8.9374E+00  2.1923E-01   8.7181E+00  0.000E+00  0.000E+00  0.000E+00  1.02974E+03  6.539E-01  1.200E+01  6.000E-02  1.218E+00
   1   13    7     6     5    8.7181E+00 -1.1426E-01   8.8324E+00  0.000E+00  0.000E+00  0.000E+00  1.02656E+03  6.515E-01  1.200E+01  2.400E-01 -1.587E-01
   1   14    9     7     1    1.5000E+02  1.3385E+00   1.4866E+02  0.000E+00  0.000E+00  0.000E+00  1.03987E+03  2.288E+00  5.529E+01  5.593E-01  7.977E-01
   1   13    8     7     2    1.4866E+02  1.8388E+00   1.4682E+02  0.000E+00  0.000E+00  0.000E+00  1.03478E+03  2.279E+00  5.526E+01  6.148E-01  9.970E-01
   1   13    7     7     3    1.4682E+02  1.4816E+00   1.4534E+02  0.000E+00  0.000E+00  0.000E+00  1.02969E+03  2.270E+00  5.522E+01  5.584E-01  8.844E-01
   1   13    6     8     1    1.5417E+02  8.4142E-01   1.5333E+02  0.000E+00  0.000E+00  0.000E+00  1.02472E+03  2.843E+00  4.122E+01  4.201E-01  6.677E-01
   1   13    5     8     2    1.5333E+02  1.1512E-01   1.5322E+02  0.000E+00  0.000E+00  0.000E+00  1.01846E+03  2.840E+00  4.118E+01  4.196E-01  9.145E-02
   1   13    4     8     3    1.5322E+02 -2.6370E+00   1.5585E+02  0.000E+00  0.000E+00  0.000E+00  1.01222E+03  2.848E+00  4.130E+01  4.209E+00 -2.088E-01
   1   13    3     8     4    1.5585E+02 -3.7325E+00   1.5959E+02  0.000E+00  0.000E+00  0.000E+00  1.00600E+03  2.870E+00  4.162E+01  4.241E+00 -2.933E-01
   1   13    2     8     5    1.5959E+02 -2.5973E+00   1.6218E+02  0.000E+00  0.000E+00  0.000E+00  9.99767E+02  2.892E+00  4.193E+01  4.273E+00 -2.026E-01
   1   13    1     8     6    1.6218E+02 -1.9775E+00   1.6416E+02  0.000E+00  0.000E+00  0.000E+00  9.94782E+02  2.907E+00  4.215E+01  2.577E+00 -2.558E-01
   1    6    8     9     1    0.0000E+00  0.0000E+00   0.0000E+00  0.000E+00  0.000E+00  0.000E+00  1.07850E+03  0.000E+00  4.000E+00  0.000E+00  1.000E+00





UNSATURATED ZONE PACKAGE VOLUMETRIC BUDGET FOR  TIME STEP    30 STRESS PERIOD   13
  ------------------------------------------------------------------------------



     CUMULATIVE VOLUMES      L**3       RATES FOR THIS TIME STEP      L**3/T
     ------------------                 ------------------------

           IN:                                      IN:
           ---                                      ---
        INFILTRATION =    56192156.8887          INFILTRATION =       0.0000E+00

          OUT:                                     OUT:
          ----                                     ----
              UZF ET =    41703178.7488                UZF ET =           0.0123
        UZF RECHARGE =     2379589.4821          UZF RECHARGE =           0.0057

            IN - OUT =    12109388.6577              IN - OUT =          -0.0180

          STORAGE:                                 STORAGE:
          --------                                 --------
      STORAGE CHANGE =    12126563.9316        STORAGE CHANGE =          -0.0179

 PERCENT DISCREPANCY IS DIFFERENCE BETWEEN IN-OUT MINUS CHANGE IN STORAGE
 DIVIDED BY THE AVERAGE OF IN AND OUT TIMES 100

 PERCENT DISCREPANCY =          -0.01     PERCENT DISCREPANCY =          -0.06






1
  VOLUMETRIC BUDGET FOR ENTIRE MODEL AT END OF TIME STEP   30, STRESS PERIOD  13
  ------------------------------------------------------------------------------

     CUMULATIVE VOLUMES      L**3       RATES FOR THIS TIME STEP      L**3/T
     ------------------                 ------------------------

           IN:                                      IN:
           ---                                      ---
    AWU WELLS            =    11225853.0000      AWU WELLS            =           0.0000
    DIVERSION SEGMENTS   =    44893080.0000      DIVERSION SEGMENTS   =           0.0000
    GW IRRIGATION        =           0.0000      GW IRRIGATION        =           0.0000
    SW IRRIGATION        =           0.0000      SW IRRIGATION        =           0.0000
    EFFICIENCY FACTOR GW =           0.0000      EFFICIENCY FACTOR GW =           0.0000
    EFFICIENCY FACTOR SW =           0.0000      EFFICIENCY FACTOR SW =           0.0000

                TOTAL IN =    56118932.0000                  TOTAL IN =           0.0000

          OUT:                                     OUT:
          ----                                     ----
    AWU WELLS            =           0.0000      AWU WELLS            =           0.0000
    DIVERSION SEGMENTS   =           0.0000      DIVERSION SEGMENTS   =           0.0000
    GW IRRIGATION        =    11225853.0000      GW IRRIGATION        =           0.0000
    SW IRRIGATION        =    44893080.0000      SW IRRIGATION        =           0.0000
    EFFICIENCY FACTOR GW =           0.0000      EFFICIENCY FACTOR GW =           0.0000
    EFFICIENCY FACTOR SW =           0.0000      EFFICIENCY FACTOR SW =           0.0000

               TOTAL OUT =    56118932.0000                 TOTAL OUT =           0.0000

                IN - OUT =           0.0000                  IN - OUT =           0.0000

     PERCENT DISCREPANCY =           0.00         PERCENT DISCREPANCY =           0.00



1
  VOLUMETRIC BUDGET FOR ENTIRE MODEL AT END OF TIME STEP   30, STRESS PERIOD  13
  ------------------------------------------------------------------------------

     CUMULATIVE VOLUMES      L**3       RATES FOR THIS TIME STEP      L**3/T
     ------------------                 ------------------------

           IN:                                      IN:
           ---                                      ---
             STORAGE     =    55576532.0000               STORAGE     =           1.2930
       CONSTANT HEAD     =           0.0000         CONSTANT HEAD     =           0.0000
     HEAD DEP BOUNDS     =     9039931.0000       HEAD DEP BOUNDS     =           0.2859
      STREAM LEAKAGE     =   375518720.0000        STREAM LEAKAGE     =           9.9973
        UZF RECHARGE     =     2379588.5000          UZF RECHARGE     =       5.6850E-03
               GW ET     =           0.0000                 GW ET     =           0.0000
     SURFACE LEAKAGE     =           0.0000       SURFACE LEAKAGE     =           0.0000
    AWU WELLS            =           0.0000      AWU WELLS            =           0.0000

                TOTAL IN =   442514752.0000                  TOTAL IN =          11.5820

          OUT:                                     OUT:
          ----                                     ----
             STORAGE     =    63722100.0000               STORAGE     =           0.2257
       CONSTANT HEAD     =           0.0000         CONSTANT HEAD     =           0.0000
     HEAD DEP BOUNDS     =     9081494.0000       HEAD DEP BOUNDS     =           0.2869
      STREAM LEAKAGE     =   304279776.0000        STREAM LEAKAGE     =          11.0585
        UZF RECHARGE     =           0.0000          UZF RECHARGE     =           0.0000
               GW ET     =    54210808.0000                 GW ET     =       1.0046E-02
     SURFACE LEAKAGE     =           0.0000       SURFACE LEAKAGE     =           0.0000
    AWU WELLS            =    11225853.0000      AWU WELLS            =           0.0000

               TOTAL OUT =   442520032.0000                 TOTAL OUT =          11.5811

                IN - OUT =       -5280.0000                  IN - OUT =       8.3447E-04

     PERCENT DISCREPANCY =          -0.00         PERCENT DISCREPANCY =           0.01






         TIME SUMMARY AT END OF TIME STEP   30 IN STRESS PERIOD   13
                    SECONDS     MINUTES      HOURS       DAYS        YEARS
                    -----------------------------------------------------------
   TIME STEP LENGTH  87600.      1460.0      24.333      1.0139     2.77588E-03
 STRESS PERIOD TIME 2.62800E+06  43800.      730.00      30.417     8.32763E-02
         TOTAL TIME 3.16224E+07 5.27040E+05  8784.0      366.00      1.0021    
1
1
                            STRESS PERIOD NO.   14, LENGTH =   2628000.    
                            -----------------------------------------------

                              NUMBER OF TIME STEPS =    30

                               MULTIPLIER FOR DELT =     1.000

                            INITIAL TIME STEP SIZE =   87600.00    

 REUSING NON-PARAMETER GHB CELLS FROM LAST STRESS PERIOD

      2 GHB CELLS

 REUSING STREAM SEGMENT DATA FROM LAST STRESS PERIOD



            AREAL INFILTRATION RATE
 READING ON UNIT   19 WITH FORMAT: (10F4.0)            

            1           2           3           4           5           6           7           8           9          10
 ........................................................................................................................
   1    0.000       0.000       0.000       0.000       0.000       0.000       0.000       0.000       0.000       0.000    
   2    0.000       0.000       0.000       0.000       0.000       0.000       0.000       0.000       0.000       0.000    
   3    0.000       0.000       0.000       0.000       0.000       0.000       0.000       0.000       0.000       0.000    
   4    0.000       0.000       0.000       0.000       0.000       0.000       0.000       0.000       0.000       0.000    
   5    0.000       0.000       0.000       0.000       0.000       0.000       0.000       0.000       0.000       0.000    
   6    0.000       0.000       0.000       0.000       0.000       0.000       0.000       0.000       0.000       0.000    
   7    0.000       0.000       0.000       0.000       0.000       0.000       0.000       0.000       0.000       0.000    
   8    0.000       0.000       0.000       0.000       0.000       0.000       0.000       0.000       0.000       0.000    
   9    0.000       0.000       0.000       0.000       0.000       0.000       0.000       0.000       0.000       0.000    
  10    0.000       0.000       0.000       0.000       0.000       0.000       0.000       0.000       0.000       0.000    
  11    0.000       0.000       0.000       0.000       0.000       0.000       0.000       0.000       0.000       0.000    
  12    0.000       0.000       0.000       0.000       0.000       0.000       0.000       0.000       0.000       0.000    
  13    0.000       0.000       0.000       0.000       0.000       0.000       0.000       0.000       0.000       0.000    
  14    0.000       0.000       0.000       0.000       0.000       0.000       0.000       0.000       0.000       0.000    
  15    0.000       0.000       0.000       0.000       0.000       0.000       0.000       0.000       0.000       0.000    

                  ET RATE =  1.000000E-10

 USING ET EXTINCTION DEPTH FROM PREVIOUS STRESS PERIOD. CURRENT PERIOD IS:      14

 USING EXTINCTION WATER CONTENT FROM PREVIOUS STRESS PERIOD. CURRENT PERIOD IS:      14

 PROCESSING AWU STRESS PERIOD DATA

 READING AWU STRESS PERIOD DATA

 READING IRRIGATION STREAM

 READING IRRIGATION WELL

 READING SUPPLEMENTAL WEL

 END PROCESSING AWU STRESS PERIOD DATA OPTIONS
 
 SOLVING FOR HEAD 
                                                   Max.-Head-Change                         Max.-Flux-Residual
  Residual-Control   Outer-Iter.   Inner-Iter.     Column Row Layer    Maximum-Head-Change  Column Row Layer    Maximum-Flux-Residual          L2-NORM 
          0                 1           2             6    8     1      -0.2114649416E-02       6    8    1        -0.1138817515E+00      0.2632620785E+00
          0                 2           2             6    8     1       0.2095423131E-03       6    8    1         0.1138815655E-01      0.2593281604E-01
          0                 3           1             6    8     1      -0.1868752911E-04       6    8    1        -0.1024934388E-02      0.2327181344E-02

    ------------------------------------------------
       NWT REQUIRED            3 OUTER ITERATIONS 
       AND A TOTAL OF          5 INNER ITERATIONS.
    ------------------------------------------------

 NO OUTPUT CONTROL FOR STRESS PERIOD   14   TIME STEP    1
 
 SOLVING FOR HEAD 
                                                   Max.-Head-Change                         Max.-Flux-Residual
  Residual-Control   Outer-Iter.   Inner-Iter.     Column Row Layer    Maximum-Head-Change  Column Row Layer    Maximum-Flux-Residual          L2-NORM 
          0                 1           2             2    2     1      -0.2083620597E-02       6    8    1        -0.1099619135E+00      0.2592899238E+00
          0                 2           2             2    2     1       0.2065481712E-03       6    8    1         0.1099617415E-01      0.2553629729E-01
          0                 3           1             2    2     1      -0.1842262940E-04       6    8    1        -0.9896559532E-03      0.2291447915E-02

    ------------------------------------------------
       NWT REQUIRED            3 OUTER ITERATIONS 
       AND A TOTAL OF          5 INNER ITERATIONS.
    ------------------------------------------------

 NO OUTPUT CONTROL FOR STRESS PERIOD   14   TIME STEP    2
 
 SOLVING FOR HEAD 
                                                   Max.-Head-Change                         Max.-Flux-Residual
  Residual-Control   Outer-Iter.   Inner-Iter.     Column Row Layer    Maximum-Head-Change  Column Row Layer    Maximum-Flux-Residual          L2-NORM 
          0                 1           2             2    2     1      -0.2069605972E-02       2    2    1        -0.1081815159E+00      0.2555532980E+00
          0                 2           2             2    2     1       0.2051589276E-03       2    2    1         0.1081814814E-01      0.2516382737E-01
          0                 3           1             2    2     1      -0.1829871834E-04       2    2    1        -0.9736323027E-03      0.2257959054E-02

    ------------------------------------------------
       NWT REQUIRED            3 OUTER ITERATIONS 
       AND A TOTAL OF          5 INNER ITERATIONS.
    ------------------------------------------------

 NO OUTPUT CONTROL FOR STRESS PERIOD   14   TIME STEP    3
 
 SOLVING FOR HEAD 
                                                   Max.-Head-Change                         Max.-Flux-Residual
  Residual-Control   Outer-Iter.   Inner-Iter.     Column Row Layer    Maximum-Head-Change  Column Row Layer    Maximum-Flux-Residual          L2-NORM 
          0                 1           2             2    2     1      -0.2055870289E-02       2    2    1        -0.1074589128E+00      0.2520414688E+00
          0                 2           2             2    2     1       0.2037973285E-03       2    2    1         0.1074588797E-01      0.2481398361E-01
          0                 3           1             2    2     1      -0.1817727222E-04       2    2    1        -0.9671288685E-03      0.2226500282E-02

    ------------------------------------------------
       NWT REQUIRED            3 OUTER ITERATIONS 
       AND A TOTAL OF          5 INNER ITERATIONS.
    ------------------------------------------------

 NO OUTPUT CONTROL FOR STRESS PERIOD   14   TIME STEP    4
 
 SOLVING FOR HEAD 
                                                   Max.-Head-Change                         Max.-Flux-Residual
  Residual-Control   Outer-Iter.   Inner-Iter.     Column Row Layer    Maximum-Head-Change  Column Row Layer    Maximum-Flux-Residual          L2-NORM 
          0                 1           2             2    2     1      -0.2042234679E-02       2    2    1        -0.1067416375E+00      0.2487457061E+00
          0                 2           2             2    2     1       0.2024456489E-03       2    2    1         0.1067416054E-01      0.2448621597E-01
          0                 3           1             2    2     1      -0.1805671145E-04       2    2    1        -0.9606734139E-03      0.2198498937E-02

    ------------------------------------------------
       NWT REQUIRED            3 OUTER ITERATIONS 
       AND A TOTAL OF          5 INNER ITERATIONS.
    ------------------------------------------------

 NO OUTPUT CONTROL FOR STRESS PERIOD   14   TIME STEP    5
 
 SOLVING FOR HEAD 
                                                   Max.-Head-Change                         Max.-Flux-Residual
  Residual-Control   Outer-Iter.   Inner-Iter.     Column Row Layer    Maximum-Head-Change  Column Row Layer    Maximum-Flux-Residual          L2-NORM 
          0                 1           2             2    2     1      -0.2028784721E-02       2    2    1        -0.1060341276E+00      0.2456279276E+00
          0                 2           2             2    2     1       0.2011123692E-03       2    2    1         0.1060340967E-01      0.2417600547E-01
          0                 3           1             2    2     1      -0.1793779143E-04       2    2    1        -0.9543058549E-03      0.2169165708E-02

    ------------------------------------------------
       NWT REQUIRED            3 OUTER ITERATIONS 
       AND A TOTAL OF          5 INNER ITERATIONS.
    ------------------------------------------------

 NO OUTPUT CONTROL FOR STRESS PERIOD   14   TIME STEP    6
 
 SOLVING FOR HEAD 
                                                   Max.-Head-Change                         Max.-Flux-Residual
  Residual-Control   Outer-Iter.   Inner-Iter.     Column Row Layer    Maximum-Head-Change  Column Row Layer    Maximum-Flux-Residual          L2-NORM 
          0                 1           2             2    2     1      -0.2015517923E-02       2    2    1        -0.1053362508E+00      0.2426924742E+00
          0                 2           2             2    2     1       0.1997972408E-03       2    2    1         0.1053362211E-01      0.2388444098E-01
          0                 3           1             2    2     1      -0.1782049008E-04       2    2    1        -0.9480249661E-03      0.2142963967E-02

    ------------------------------------------------
       NWT REQUIRED            3 OUTER ITERATIONS 
       AND A TOTAL OF          5 INNER ITERATIONS.
    ------------------------------------------------

 NO OUTPUT CONTROL FOR STRESS PERIOD   14   TIME STEP    7
 
 SOLVING FOR HEAD 
                                                   Max.-Head-Change                         Max.-Flux-Residual
  Residual-Control   Outer-Iter.   Inner-Iter.     Column Row Layer    Maximum-Head-Change  Column Row Layer    Maximum-Flux-Residual          L2-NORM 
          0                 1           2             2    2     1      -0.2002431068E-02       2    2    1        -0.1046478778E+00      0.2399085759E+00
          0                 2           2             2    2     1       0.1984999448E-03       2    2    1         0.1046478494E-01      0.2360811531E-01
          0                 3           1             2    2     1      -0.1770477890E-04       2    2    1        -0.9418296086E-03      0.2118134246E-02

    ------------------------------------------------
       NWT REQUIRED            3 OUTER ITERATIONS 
       AND A TOTAL OF          5 INNER ITERATIONS.
    ------------------------------------------------

 NO OUTPUT CONTROL FOR STRESS PERIOD   14   TIME STEP    8
 
 SOLVING FOR HEAD 
                                                   Max.-Head-Change                         Max.-Flux-Residual
  Residual-Control   Outer-Iter.   Inner-Iter.     Column Row Layer    Maximum-Head-Change  Column Row Layer    Maximum-Flux-Residual          L2-NORM 
          0                 1           2             2    2     1      -0.1989520985E-02       2    2    1        -0.1039688418E+00      0.2372700974E+00
          0                 2           2             2    2     1       0.1972201692E-03       2    2    1         0.1039688143E-01      0.2334655250E-01
          0                 3           1             2    2     1      -0.1759063062E-04       2    2    1        -0.9357182962E-03      0.2094614487E-02

    ------------------------------------------------
       NWT REQUIRED            3 OUTER ITERATIONS 
       AND A TOTAL OF          5 INNER ITERATIONS.
    ------------------------------------------------

 NO OUTPUT CONTROL FOR STRESS PERIOD   14   TIME STEP    9
 
 SOLVING FOR HEAD 
                                                   Max.-Head-Change                         Max.-Flux-Residual
  Residual-Control   Outer-Iter.   Inner-Iter.     Column Row Layer    Maximum-Head-Change  Column Row Layer    Maximum-Flux-Residual          L2-NORM 
          0                 1           2             2    2     1      -0.1976785723E-02       2    2    1        -0.1032989780E+00      0.2347751786E+00
          0                 2           2             2    2     1       0.1959577190E-03       2    2    1         0.1032989516E-01      0.2309938398E-01
          0                 3           1             2    2     1      -0.1747802807E-04       2    2    1        -0.9296895586E-03      0.2072397784E-02

    ------------------------------------------------
       NWT REQUIRED            3 OUTER ITERATIONS 
       AND A TOTAL OF          5 INNER ITERATIONS.
    ------------------------------------------------

 NO OUTPUT CONTROL FOR STRESS PERIOD   14   TIME STEP   10
 
 SOLVING FOR HEAD 
                                                   Max.-Head-Change                         Max.-Flux-Residual
  Residual-Control   Outer-Iter.   Inner-Iter.     Column Row Layer    Maximum-Head-Change  Column Row Layer    Maximum-Flux-Residual          L2-NORM 
          0                 1           2             2    2     1      -0.1964222579E-02       2    2    1        -0.1026381855E+00      0.2324001376E+00
          0                 2           2             2    2     1       0.1947123256E-03       2    2    1         0.1026381599E-01      0.2286437005E-01
          0                 3           1             2    2     1      -0.1736694619E-04       2    2    1        -0.9237424191E-03      0.2051357915E-02

    ------------------------------------------------
       NWT REQUIRED            3 OUTER ITERATIONS 
       AND A TOTAL OF          5 INNER ITERATIONS.
    ------------------------------------------------

 NO OUTPUT CONTROL FOR STRESS PERIOD   14   TIME STEP   11
 
 SOLVING FOR HEAD 
                                                   Max.-Head-Change                         Max.-Flux-Residual
  Residual-Control   Outer-Iter.   Inner-Iter.     Column Row Layer    Maximum-Head-Change  Column Row Layer    Maximum-Flux-Residual          L2-NORM 
          0                 1           2             2    2     1      -0.1951741081E-02       2    2    1        -0.1019817512E+00      0.2301458535E+00
          0                 2           2             2    2     1       0.1934750278E-03       2    2    1         0.1019817267E-01      0.2264150536E-01
          0                 3           1             2    2     1      -0.1725658683E-04       2    2    1        -0.9178345399E-03      0.2031313463E-02

    ------------------------------------------------
       NWT REQUIRED            3 OUTER ITERATIONS 
       AND A TOTAL OF          5 INNER ITERATIONS.
    ------------------------------------------------

 NO OUTPUT CONTROL FOR STRESS PERIOD   14   TIME STEP   12
 
 SOLVING FOR HEAD 
                                                   Max.-Head-Change                         Max.-Flux-Residual
  Residual-Control   Outer-Iter.   Inner-Iter.     Column Row Layer    Maximum-Head-Change  Column Row Layer    Maximum-Flux-Residual          L2-NORM 
          0                 1           2             2    2     1      -0.1939514545E-02       2    2    1        -0.1013386982E+00      0.2280009088E+00
          0                 2           2             2    2     1       0.1922629970E-03       2    2    1         0.1013386747E-01      0.2242960356E-01
          0                 3           1             2    2     1      -0.1714848096E-04       2    2    1        -0.9120470771E-03      0.2012326902E-02

    ------------------------------------------------
       NWT REQUIRED            3 OUTER ITERATIONS 
       AND A TOTAL OF          5 INNER ITERATIONS.
    ------------------------------------------------

 NO OUTPUT CONTROL FOR STRESS PERIOD   14   TIME STEP   13
 
 SOLVING FOR HEAD 
                                                   Max.-Head-Change                         Max.-Flux-Residual
  Residual-Control   Outer-Iter.   Inner-Iter.     Column Row Layer    Maximum-Head-Change  Column Row Layer    Maximum-Flux-Residual          L2-NORM 
          0                 1           2             2    2     1      -0.1927365253E-02       2    2    1        -0.1006997299E+00      0.2259471956E+00
          0                 2           2             2    2     1       0.1910586245E-03       2    2    1         0.1006997072E-01      0.2222686583E-01
          0                 3           1             2    2     1      -0.1704105782E-04       2    2    1        -0.9062963865E-03      0.1994092066E-02

    ------------------------------------------------
       NWT REQUIRED            3 OUTER ITERATIONS 
       AND A TOTAL OF          5 INNER ITERATIONS.
    ------------------------------------------------

 NO OUTPUT CONTROL FOR STRESS PERIOD   14   TIME STEP   14
 
 SOLVING FOR HEAD 
                                                   Max.-Head-Change                         Max.-Flux-Residual
  Residual-Control   Outer-Iter.   Inner-Iter.     Column Row Layer    Maximum-Head-Change  Column Row Layer    Maximum-Flux-Residual          L2-NORM 
          0                 1           2             2    2     1      -0.1915465803E-02       2    2    1        -0.1000739142E+00      0.2239931744E+00
          0                 2           2             2    2     1       0.1898790133E-03       2    2    1         0.1000738926E-01      0.2203420473E-01
          0                 3           1             2    2     1      -0.1693584349E-04       2    2    1        -0.9006640664E-03      0.1976838123E-02

    ------------------------------------------------
       NWT REQUIRED            3 OUTER ITERATIONS 
       AND A TOTAL OF          5 INNER ITERATIONS.
    ------------------------------------------------

 NO OUTPUT CONTROL FOR STRESS PERIOD   14   TIME STEP   15
 
 SOLVING FOR HEAD 
                                                   Max.-Head-Change                         Max.-Flux-Residual
  Residual-Control   Outer-Iter.   Inner-Iter.     Column Row Layer    Maximum-Head-Change  Column Row Layer    Maximum-Flux-Residual          L2-NORM 
          0                 1           2             2    2     1      -0.1903638167E-02       2    2    1        -0.9945191766E-01      0.2221178833E+00
          0                 2           2             2    2     1       0.1887065195E-03       2    2    1         0.9945189678E-02      0.2184946402E-01
          0                 3           1             2    2     1      -0.1683126301E-04       2    2    1        -0.8950660809E-03      0.1960236516E-02

    ------------------------------------------------
       NWT REQUIRED            3 OUTER ITERATIONS 
       AND A TOTAL OF          5 INNER ITERATIONS.
    ------------------------------------------------

 NO OUTPUT CONTROL FOR STRESS PERIOD   14   TIME STEP   16
 
 SOLVING FOR HEAD 
                                                   Max.-Head-Change                         Max.-Flux-Residual
  Residual-Control   Outer-Iter.   Inner-Iter.     Column Row Layer    Maximum-Head-Change  Column Row Layer    Maximum-Flux-Residual          L2-NORM 
          0                 1           2             2    2     1      -0.1891968045E-02       2    2    1        -0.9883821964E-01      0.2203173824E+00
          0                 2           2             2    2     1       0.1875496333E-03       2    2    1         0.9883819974E-02      0.2167220143E-01
          0                 3           1             2    2     1      -0.1672807526E-04       2    2    1        -0.8895428236E-03      0.1944358691E-02

    ------------------------------------------------
       NWT REQUIRED            3 OUTER ITERATIONS 
       AND A TOTAL OF          5 INNER ITERATIONS.
    ------------------------------------------------

 NO OUTPUT CONTROL FOR STRESS PERIOD   14   TIME STEP   17
 
 SOLVING FOR HEAD 
                                                   Max.-Head-Change                         Max.-Flux-Residual
  Residual-Control   Outer-Iter.   Inner-Iter.     Column Row Layer    Maximum-Head-Change  Column Row Layer    Maximum-Flux-Residual          L2-NORM 
          0                 1           2             2    2     1      -0.1880453369E-02       2    2    1        -0.9823269491E-01      0.2185978124E+00
          0                 2           2             2    2     1       0.1864081541E-03       2    2    1         0.9823267575E-02      0.2150307264E-01
          0                 3           1             2    2     1      -0.1662626156E-04       2    2    1        -0.8840931195E-03      0.1929194287E-02

    ------------------------------------------------
       NWT REQUIRED            3 OUTER ITERATIONS 
       AND A TOTAL OF          5 INNER ITERATIONS.
    ------------------------------------------------

 NO OUTPUT CONTROL FOR STRESS PERIOD   14   TIME STEP   18
 
 SOLVING FOR HEAD 
                                                   Max.-Head-Change                         Max.-Flux-Residual
  Residual-Control   Outer-Iter.   Inner-Iter.     Column Row Layer    Maximum-Head-Change  Column Row Layer    Maximum-Flux-Residual          L2-NORM 
          0                 1           2             2    2     1      -0.1869091391E-02       2    2    1        -0.9763523591E-01      0.2169503335E+00
          0                 2           2             2    2     1       0.1852818082E-03       2    2    1         0.9763521761E-02      0.2134122957E-01
          0                 3           1             2    2     1      -0.1652579687E-04       2    2    1        -0.8787159742E-03      0.1914687301E-02

    ------------------------------------------------
       NWT REQUIRED            3 OUTER ITERATIONS 
       AND A TOTAL OF          5 INNER ITERATIONS.
    ------------------------------------------------

 NO OUTPUT CONTROL FOR STRESS PERIOD   14   TIME STEP   19
 
 SOLVING FOR HEAD 
                                                   Max.-Head-Change                         Max.-Flux-Residual
  Residual-Control   Outer-Iter.   Inner-Iter.     Column Row Layer    Maximum-Head-Change  Column Row Layer    Maximum-Flux-Residual          L2-NORM 
          0                 1           2             2    2     1      -0.1857880165E-02       2    2    1        -0.9704570001E-01      0.2153592770E+00
          0                 2           2             2    2     1       0.1841704036E-03       2    2    1         0.9704568239E-02      0.2118522279E-01
          0                 3           1             2    2     1      -0.1642666571E-04       2    2    1        -0.8734101868E-03      0.1900698772E-02

    ------------------------------------------------
       NWT REQUIRED            3 OUTER ITERATIONS 
       AND A TOTAL OF          5 INNER ITERATIONS.
    ------------------------------------------------

 NO OUTPUT CONTROL FOR STRESS PERIOD   14   TIME STEP   20
 
 SOLVING FOR HEAD 
                                                   Max.-Head-Change                         Max.-Flux-Residual
  Residual-Control   Outer-Iter.   Inner-Iter.     Column Row Layer    Maximum-Head-Change  Column Row Layer    Maximum-Flux-Residual          L2-NORM 
          0                 1           2             2    2     1      -0.1846817369E-02       2    2    1        -0.9646398637E-01      0.2138375594E+00
          0                 2           2             2    2     1       0.1830737076E-03       2    2    1         0.9646396956E-02      0.2103613217E-01
          0                 3           1             2    2     1      -0.1632884598E-04       2    2    1        -0.8681747735E-03      0.1887349287E-02

    ------------------------------------------------
       NWT REQUIRED            3 OUTER ITERATIONS 
       AND A TOTAL OF          5 INNER ITERATIONS.
    ------------------------------------------------

 NO OUTPUT CONTROL FOR STRESS PERIOD   14   TIME STEP   21
 
 SOLVING FOR HEAD 
                                                   Max.-Head-Change                         Max.-Flux-Residual
  Residual-Control   Outer-Iter.   Inner-Iter.     Column Row Layer    Maximum-Head-Change  Column Row Layer    Maximum-Flux-Residual          L2-NORM 
          0                 1           2             2    2     1      -0.1835900752E-02       2    2    1        -0.9588997455E-01      0.2123682451E+00
          0                 2           2             2    2     1       0.1819915005E-03       2    2    1         0.9588995845E-02      0.2089232476E-01
          0                 3           1             2    2     1      -0.1623231828E-04       2    2    1        -0.8630086656E-03      0.1874444845E-02

    ------------------------------------------------
       NWT REQUIRED            3 OUTER ITERATIONS 
       AND A TOTAL OF          5 INNER ITERATIONS.
    ------------------------------------------------

 NO OUTPUT CONTROL FOR STRESS PERIOD   14   TIME STEP   22
 
 SOLVING FOR HEAD 
                                                   Max.-Head-Change                         Max.-Flux-Residual
  Residual-Control   Outer-Iter.   Inner-Iter.     Column Row Layer    Maximum-Head-Change  Column Row Layer    Maximum-Flux-Residual          L2-NORM 
          0                 1           2             2    2     1      -0.1825040682E-02       2    2    1        -0.9531897562E-01      0.2109454961E+00
          0                 2           2             2    2     1       0.1809148984E-03       2    2    1         0.9531896028E-02      0.2075316868E-01
          0                 3           1             2    2     1      -0.1613629108E-04       2    2    1        -0.8578696967E-03      0.1861974746E-02

    ------------------------------------------------
       NWT REQUIRED            3 OUTER ITERATIONS 
       AND A TOTAL OF          5 INNER ITERATIONS.
    ------------------------------------------------

 NO OUTPUT CONTROL FOR STRESS PERIOD   14   TIME STEP   23
 
 SOLVING FOR HEAD 
                                                   Max.-Head-Change                         Max.-Flux-Residual
  Residual-Control   Outer-Iter.   Inner-Iter.     Column Row Layer    Maximum-Head-Change  Column Row Layer    Maximum-Flux-Residual          L2-NORM 
          0                 1           2             2    2     1      -0.1814410818E-02       2    2    1        -0.9476005456E-01      0.2095853378E+00
          0                 2           2             2    2     1       0.1798611105E-03       2    2    1         0.9476003971E-02      0.2062029165E-01
          0                 3           1             2    2     1      -0.1604229759E-04       2    2    1        -0.8528393956E-03      0.1850069588E-02

    ------------------------------------------------
       NWT REQUIRED            3 OUTER ITERATIONS 
       AND A TOTAL OF          5 INNER ITERATIONS.
    ------------------------------------------------

 NO OUTPUT CONTROL FOR STRESS PERIOD   14   TIME STEP   24
 
 SOLVING FOR HEAD 
                                                   Max.-Head-Change                         Max.-Flux-Residual
  Residual-Control   Outer-Iter.   Inner-Iter.     Column Row Layer    Maximum-Head-Change  Column Row Layer    Maximum-Flux-Residual          L2-NORM 
          0                 1           2             2    2     1      -0.1803920136E-02       2    2    1        -0.9420850658E-01      0.2082629869E+00
          0                 2           2             2    2     1       0.1788211161E-03       2    2    1         0.9420849248E-02      0.2049126736E-01
          0                 3           1             2    2     1      -0.1594953546E-04       2    2    1        -0.8478754932E-03      0.1838526232E-02

    ------------------------------------------------
       NWT REQUIRED            3 OUTER ITERATIONS 
       AND A TOTAL OF          5 INNER ITERATIONS.
    ------------------------------------------------

 NO OUTPUT CONTROL FOR STRESS PERIOD   14   TIME STEP   25
 
 SOLVING FOR HEAD 
                                                   Max.-Head-Change                         Max.-Flux-Residual
  Residual-Control   Outer-Iter.   Inner-Iter.     Column Row Layer    Maximum-Head-Change  Column Row Layer    Maximum-Flux-Residual          L2-NORM 
          0                 1           2             2    2     1      -0.1793479884E-02       2    2    1        -0.9365960879E-01      0.2069906574E+00
          0                 2           2             2    2     1       0.1777861224E-03       2    2    1         0.9365959520E-02      0.2036718475E-01
          0                 3           1             2    2     1      -0.1585721883E-04       2    2    1        -0.8429354181E-03      0.1827414878E-02

    ------------------------------------------------
       NWT REQUIRED            3 OUTER ITERATIONS 
       AND A TOTAL OF          5 INNER ITERATIONS.
    ------------------------------------------------

 NO OUTPUT CONTROL FOR STRESS PERIOD   14   TIME STEP   26
 
 SOLVING FOR HEAD 
                                                   Max.-Head-Change                         Max.-Flux-Residual
  Residual-Control   Outer-Iter.   Inner-Iter.     Column Row Layer    Maximum-Head-Change  Column Row Layer    Maximum-Flux-Residual          L2-NORM 
          0                 1           2             2    2     1      -0.1783176098E-02       2    2    1        -0.9311789930E-01      0.2057500771E+00
          0                 2           2             2    2     1       0.1767646510E-03       2    2    1         0.9311788653E-02      0.2024636161E-01
          0                 3           1             2    2     1      -0.1576610803E-04       2    2    1        -0.8380600557E-03      0.1816626168E-02

    ------------------------------------------------
       NWT REQUIRED            3 OUTER ITERATIONS 
       AND A TOTAL OF          5 INNER ITERATIONS.
    ------------------------------------------------

 NO OUTPUT CONTROL FOR STRESS PERIOD   14   TIME STEP   27
 
 SOLVING FOR HEAD 
                                                   Max.-Head-Change                         Max.-Flux-Residual
  Residual-Control   Outer-Iter.   Inner-Iter.     Column Row Layer    Maximum-Head-Change  Column Row Layer    Maximum-Flux-Residual          L2-NORM 
          0                 1           2             2    2     1      -0.1773093287E-02       2    2    1        -0.9258784248E-01      0.2045575679E+00
          0                 2           2             2    2     1       0.1757650810E-03       2    2    1         0.9258783033E-02      0.2013029420E-01
          0                 3           1             2    2     1      -0.1567695037E-04       2    2    1        -0.8332895241E-03      0.1806223092E-02

    ------------------------------------------------
       NWT REQUIRED            3 OUTER ITERATIONS 
       AND A TOTAL OF          5 INNER ITERATIONS.
    ------------------------------------------------

 NO OUTPUT CONTROL FOR STRESS PERIOD   14   TIME STEP   28
 
 SOLVING FOR HEAD 
                                                   Max.-Head-Change                         Max.-Flux-Residual
  Residual-Control   Outer-Iter.   Inner-Iter.     Column Row Layer    Maximum-Head-Change  Column Row Layer    Maximum-Flux-Residual          L2-NORM 
          0                 1           2             2    2     1      -0.1763054746E-02       2    2    1        -0.9206010827E-01      0.2033966927E+00
          0                 2           2             2    2     1       0.1747698978E-03       2    2    1         0.9206009668E-02      0.2001743234E-01
          0                 3           1             2    2     1      -0.1558818468E-04       2    2    1        -0.8285399478E-03      0.1796109328E-02

    ------------------------------------------------
       NWT REQUIRED            3 OUTER ITERATIONS 
       AND A TOTAL OF          5 INNER ITERATIONS.
    ------------------------------------------------

 NO OUTPUT CONTROL FOR STRESS PERIOD   14   TIME STEP   29
 
 SOLVING FOR HEAD 
                                                   Max.-Head-Change                         Max.-Flux-Residual
  Residual-Control   Outer-Iter.   Inner-Iter.     Column Row Layer    Maximum-Head-Change  Column Row Layer    Maximum-Flux-Residual          L2-NORM 
          0                 1           2             6    8     1       0.2796514270E-02       6    8    1         0.1533396627E+00      0.2541213630E+00
          0                 2           2             6    8     1      -0.2771096863E-03       6    8    1        -0.1533400345E-01      0.2493644339E-01
          0                 3           1             6    8     1       0.2471335175E-04       6    8    1         0.1380060136E-02      0.2218916094E-02

    ------------------------------------------------
       NWT REQUIRED            3 OUTER ITERATIONS 
       AND A TOTAL OF          5 INNER ITERATIONS.
    ------------------------------------------------

 NO OUTPUT CONTROL FOR STRESS PERIOD   14   TIME STEP   30



 STREAM LISTING     PERIOD     14   STEP       30

 LAYER ROW COL. STREAM  RCH.  FLOW INTO     FLOW TO   FLOW OUT OF   OVRLND.     DIRECT     STREAM       STREAM     STREAM     STREAM   STREAMBED  STREAMBED
                SEG.NO.  NO.  STRM. RCH.    AQUIFER    STRM. RCH.    RUNOFF     PRECIP       ET          HEAD       DEPTH      WIDTH   CONDCTNC.   GRADIENT

   1    1    1     1     1    7.3575E+00  1.2279E-01   7.2347E+00  0.000E+00  0.000E+00  0.000E+00  1.09386E+03  8.110E-01  7.160E+00  3.222E-02  1.270E+00
   1    2    2     1     2    7.2347E+00  1.8849E-01   7.0463E+00  0.000E+00  0.000E+00  0.000E+00  1.08886E+03  8.053E-01  7.076E+00  4.953E-02  1.268E+00
   1    3    3     1     3    7.0463E+00  1.5918E-01   6.8871E+00  0.000E+00  0.000E+00  0.000E+00  1.08322E+03  7.991E-01  6.983E+00  4.190E-02  1.266E+00
   1    3    4     1     4    6.8871E+00  1.4547E-01   6.7416E+00  0.000E+00  0.000E+00  0.000E+00  1.07820E+03  7.949E-01  6.907E+00  3.833E-02  1.265E+00
   1    4    5     2     1    4.7416E+00  2.6814E-01   4.4735E+00  0.000E+00  0.000E+00  0.000E+00  1.07237E+03  4.377E-01  1.200E+01  7.800E-02  1.146E+00
   1    5    6     2     2    4.4735E+00  2.0545E-01   4.2680E+00  0.000E+00  0.000E+00  0.000E+00  1.06693E+03  4.241E-01  1.200E+01  6.000E-02  1.141E+00
   1    6    6     2     3    4.2680E+00  2.0472E-01   4.0633E+00  0.000E+00  0.000E+00  0.000E+00  1.06220E+03  4.121E-01  1.200E+01  6.000E-02  1.137E+00
   1    7    6     2     4    4.0633E+00  2.0399E-01   3.8593E+00  0.000E+00  0.000E+00  0.000E+00  1.05748E+03  3.998E-01  1.200E+01  6.000E-02  1.133E+00
   1    8    6     2     5    3.8593E+00  2.0324E-01   3.6561E+00  0.000E+00  0.000E+00  0.000E+00  1.05275E+03  3.873E-01  1.200E+01  6.000E-02  1.129E+00
   1    3    5     3     1    2.0000E+00  2.8252E-01   1.7175E+00  0.000E+00  0.000E+00  0.000E+00  1.07555E+03  1.909E+00  9.636E+00  7.227E-02  1.955E+00
   1    3    6     3     2    1.7175E+00  2.4905E-01   1.4684E+00  0.000E+00  0.000E+00  0.000E+00  1.07264E+03  1.727E+00  8.909E+00  6.682E-02  1.864E+00
   1    3    7     3     3    1.4684E+00  1.9718E-01   1.2712E+00  0.000E+00  0.000E+00  0.000E+00  1.06987E+03  1.555E+00  8.218E+00  5.547E-02  1.777E+00
   1    4    8     3     4    1.2712E+00  2.2567E-01   1.0456E+00  0.000E+00  0.000E+00  0.000E+00  1.06682E+03  1.364E+00  7.455E+00  6.709E-02  1.682E+00
   1    5    8     3     5    1.0456E+00  1.5790E-01   8.8768E-01  0.000E+00  0.000E+00  0.000E+00  1.06362E+03  1.164E+00  6.655E+00  4.991E-02  1.582E+00
   1    6    8     3     6    8.8768E-01  5.5980E-02   8.3170E-01  0.000E+00  0.000E+00  0.000E+00  1.06158E+03  1.036E+00  6.145E+00  1.844E-02  1.518E+00
   1    5   10     4     1    1.0000E+01  9.0919E-02   9.9091E+00  0.000E+00  0.000E+00  0.000E+00  1.07836E+03  6.368E-01  1.000E+01  2.500E-02  1.212E+00
   1    5    9     4     2    9.9091E+00  1.8158E-01   9.7275E+00  0.000E+00  0.000E+00  0.000E+00  1.07154E+03  6.315E-01  1.000E+01  5.000E-02  1.211E+00
   1    6    8     4     3    9.7275E+00  1.2689E-01   9.6006E+00  0.000E+00  0.000E+00  0.000E+00  1.06381E+03  6.256E-01  1.000E+01  3.500E-02  1.209E+00
   1    6    8     5     1    1.0432E+01  2.2686E-01   1.0205E+01  0.000E+00  0.000E+00  0.000E+00  1.05868E+03  6.790E-01  1.542E+01  6.166E-02  1.226E+00
   1    7    7     5     2    1.0205E+01  2.7894E-01   9.9265E+00  0.000E+00  0.000E+00  0.000E+00  1.05417E+03  6.732E-01  1.519E+01  7.594E-02  1.224E+00
   1    8    7     5     3    9.9265E+00  1.9221E-01   9.7343E+00  0.000E+00  0.000E+00  0.000E+00  1.04992E+03  6.676E-01  1.497E+01  5.241E-02  1.223E+00
   1    8    6     5     4    9.7343E+00  1.3577E-01   9.5985E+00  0.000E+00  0.000E+00  0.000E+00  1.04691E+03  6.637E-01  1.482E+01  3.706E-02  1.221E+00
   1    9    6     6     1    1.3255E+01  2.2980E-01   1.3025E+01  0.000E+00  0.000E+00  0.000E+00  1.04356E+03  8.301E-01  1.200E+01  6.000E-02  1.277E+00
   1   10    7     6     2    1.3025E+01  2.2928E-01   1.2796E+01  0.000E+00  0.000E+00  0.000E+00  1.03900E+03  8.214E-01  1.200E+01  6.000E-02  1.274E+00
   1   11    7     6     3    1.2796E+01  2.2875E-01   1.2567E+01  0.000E+00  0.000E+00  0.000E+00  1.03445E+03  8.126E-01  1.200E+01  6.000E-02  1.271E+00
   1   12    7     6     4    1.2567E+01  2.2823E-01   1.2339E+01  0.000E+00  0.000E+00  0.000E+00  1.02989E+03  8.038E-01  1.200E+01  6.000E-02  1.268E+00
   1   13    7     6     5    1.2339E+01 -7.8314E-02   1.2417E+01  0.000E+00  0.000E+00  0.000E+00  1.02671E+03  8.009E-01  1.200E+01  2.400E-01 -1.088E-01
   1   14    9     7     1    1.5000E+02  1.3388E+00   1.4866E+02  0.000E+00  0.000E+00  0.000E+00  1.03987E+03  2.288E+00  5.529E+01  5.593E-01  7.979E-01
   1   13    8     7     2    1.4866E+02  1.8399E+00   1.4682E+02  0.000E+00  0.000E+00  0.000E+00  1.03478E+03  2.279E+00  5.526E+01  6.148E-01  9.976E-01
   1   13    7     7     3    1.4682E+02  1.4818E+00   1.4534E+02  0.000E+00  0.000E+00  0.000E+00  1.02969E+03  2.270E+00  5.522E+01  5.584E-01  8.845E-01
   1   13    6     8     1    1.5776E+02  8.5677E-01   1.5690E+02  0.000E+00  0.000E+00  0.000E+00  1.02474E+03  2.868E+00  4.158E+01  4.237E-01  6.740E-01
   1   13    5     8     2    1.5690E+02  1.2316E-01   1.5678E+02  0.000E+00  0.000E+00  0.000E+00  1.01849E+03  2.864E+00  4.153E+01  4.232E-01  9.700E-02
   1   13    4     8     3    1.5678E+02 -2.5690E+00   1.5935E+02  0.000E+00  0.000E+00  0.000E+00  1.01225E+03  2.873E+00  4.165E+01  4.245E+00 -2.017E-01
   1   13    3     8     4    1.5935E+02 -3.6687E+00   1.6301E+02  0.000E+00  0.000E+00  0.000E+00  1.00602E+03  2.894E+00  4.196E+01  4.276E+00 -2.860E-01
   1   13    2     8     5    1.6301E+02 -2.5250E+00   1.6554E+02  0.000E+00  0.000E+00  0.000E+00  9.99790E+02  2.915E+00  4.226E+01  4.307E+00 -1.954E-01
   1   13    1     8     6    1.6554E+02 -1.9379E+00   1.6748E+02  0.000E+00  0.000E+00  0.000E+00  9.94804E+02  2.929E+00  4.248E+01  2.597E+00 -2.487E-01
   1    6    8     9     1    0.0000E+00  0.0000E+00   0.0000E+00  0.000E+00  0.000E+00  0.000E+00  1.07850E+03  0.000E+00  4.000E+00  0.000E+00  1.000E+00





UNSATURATED ZONE PACKAGE VOLUMETRIC BUDGET FOR  TIME STEP    30 STRESS PERIOD   14
  ------------------------------------------------------------------------------



     CUMULATIVE VOLUMES      L**3       RATES FOR THIS TIME STEP      L**3/T
     ------------------                 ------------------------

           IN:                                      IN:
           ---                                      ---
        INFILTRATION =    56192156.8887          INFILTRATION =       0.0000E+00

          OUT:                                     OUT:
          ----                                     ----
              UZF ET =    41736013.2449                UZF ET =           0.0126
        UZF RECHARGE =     2391551.1315          UZF RECHARGE =           0.0038

            IN - OUT =    12064592.5122              IN - OUT =          -0.0164

          STORAGE:                                 STORAGE:
          --------                                 --------
      STORAGE CHANGE =    12081797.5422        STORAGE CHANGE =          -0.0164

 PERCENT DISCREPANCY IS DIFFERENCE BETWEEN IN-OUT MINUS CHANGE IN STORAGE
 DIVIDED BY THE AVERAGE OF IN AND OUT TIMES 100

 PERCENT DISCREPANCY =          -0.01     PERCENT DISCREPANCY =          -0.07






1
  VOLUMETRIC BUDGET FOR ENTIRE MODEL AT END OF TIME STEP   30, STRESS PERIOD  14
  ------------------------------------------------------------------------------

     CUMULATIVE VOLUMES      L**3       RATES FOR THIS TIME STEP      L**3/T
     ------------------                 ------------------------

           IN:                                      IN:
           ---                                      ---
    AWU WELLS            =    11225853.0000      AWU WELLS            =           0.0000
    DIVERSION SEGMENTS   =    44893080.0000      DIVERSION SEGMENTS   =           0.0000
    GW IRRIGATION        =           0.0000      GW IRRIGATION        =           0.0000
    SW IRRIGATION        =           0.0000      SW IRRIGATION        =           0.0000
    EFFICIENCY FACTOR GW =           0.0000      EFFICIENCY FACTOR GW =           0.0000
    EFFICIENCY FACTOR SW =           0.0000      EFFICIENCY FACTOR SW =           0.0000

                TOTAL IN =    56118932.0000                  TOTAL IN =           0.0000

          OUT:                                     OUT:
          ----                                     ----
    AWU WELLS            =           0.0000      AWU WELLS            =           0.0000
    DIVERSION SEGMENTS   =           0.0000      DIVERSION SEGMENTS   =           0.0000
    GW IRRIGATION        =    11225853.0000      GW IRRIGATION        =           0.0000
    SW IRRIGATION        =    44893080.0000      SW IRRIGATION        =           0.0000
    EFFICIENCY FACTOR GW =           0.0000      EFFICIENCY FACTOR GW =           0.0000
    EFFICIENCY FACTOR SW =           0.0000      EFFICIENCY FACTOR SW =           0.0000

               TOTAL OUT =    56118932.0000                 TOTAL OUT =           0.0000

                IN - OUT =           0.0000                  IN - OUT =           0.0000

     PERCENT DISCREPANCY =           0.00         PERCENT DISCREPANCY =           0.00



1
  VOLUMETRIC BUDGET FOR ENTIRE MODEL AT END OF TIME STEP   30, STRESS PERIOD  14
  ------------------------------------------------------------------------------

     CUMULATIVE VOLUMES      L**3       RATES FOR THIS TIME STEP      L**3/T
     ------------------                 ------------------------

           IN:                                      IN:
           ---                                      ---
             STORAGE     =    58798716.0000               STORAGE     =           0.7894
       CONSTANT HEAD     =           0.0000         CONSTANT HEAD     =           0.0000
     HEAD DEP BOUNDS     =     9791414.0000       HEAD DEP BOUNDS     =           0.2860
      STREAM LEAKAGE     =   401844416.0000        STREAM LEAKAGE     =          10.6595
        UZF RECHARGE     =     2391550.2500          UZF RECHARGE     =       3.8153E-03
               GW ET     =           0.0000                 GW ET     =           0.0000
     SURFACE LEAKAGE     =           0.0000       SURFACE LEAKAGE     =           0.0000
    AWU WELLS            =           0.0000      AWU WELLS            =           0.0000

                TOTAL IN =   472826112.0000                  TOTAL IN =          11.7386

          OUT:                                     OUT:
          ----                                     ----
             STORAGE     =    64202732.0000               STORAGE     =           0.6626
       CONSTANT HEAD     =           0.0000         CONSTANT HEAD     =           0.0000
     HEAD DEP BOUNDS     =     9835437.0000       HEAD DEP BOUNDS     =           0.2869
      STREAM LEAKAGE     =   333328000.0000        STREAM LEAKAGE     =          10.7789
        UZF RECHARGE     =           0.0000          UZF RECHARGE     =           0.0000
               GW ET     =    54237208.0000                 GW ET     =       1.0056E-02
     SURFACE LEAKAGE     =           0.0000       SURFACE LEAKAGE     =           0.0000
    AWU WELLS            =    11225853.0000      AWU WELLS            =           0.0000

               TOTAL OUT =   472829248.0000                 TOTAL OUT =          11.7385

                IN - OUT =       -3136.0000                  IN - OUT =       1.3638E-04

     PERCENT DISCREPANCY =          -0.00         PERCENT DISCREPANCY =           0.00






         TIME SUMMARY AT END OF TIME STEP   30 IN STRESS PERIOD   14
                    SECONDS     MINUTES      HOURS       DAYS        YEARS
                    -----------------------------------------------------------
   TIME STEP LENGTH  87600.      1460.0      24.333      1.0139     2.77588E-03
 STRESS PERIOD TIME 2.62800E+06  43800.      730.00      30.417     8.32763E-02
         TOTAL TIME 3.42504E+07 5.70840E+05  9514.0      396.42      1.0853    
1
1
                            STRESS PERIOD NO.   15, LENGTH =   2628000.    
                            -----------------------------------------------

                              NUMBER OF TIME STEPS =    30

                               MULTIPLIER FOR DELT =     1.000

                            INITIAL TIME STEP SIZE =   87600.00    

 REUSING NON-PARAMETER GHB CELLS FROM LAST STRESS PERIOD

      2 GHB CELLS

 REUSING STREAM SEGMENT DATA FROM LAST STRESS PERIOD



            AREAL INFILTRATION RATE
 READING ON UNIT   19 WITH FORMAT: (10F4.0)            

            1           2           3           4           5           6           7           8           9          10
 ........................................................................................................................
   1    0.000       0.000       0.000       0.000       0.000       0.000       0.000       0.000       0.000       0.000    
   2    0.000       0.000       0.000       0.000       0.000       0.000       0.000       0.000       0.000       0.000    
   3    0.000       0.000       0.000       0.000       0.000       0.000       0.000       0.000       0.000       0.000    
   4    0.000       0.000       0.000       0.000       0.000       0.000       0.000       0.000       0.000       0.000    
   5    0.000       0.000       0.000       0.000       0.000       0.000       0.000       0.000       0.000       0.000    
   6    0.000       0.000       0.000       0.000       0.000       0.000       0.000       0.000       0.000       0.000    
   7    0.000       0.000       0.000       0.000       0.000       0.000       0.000       0.000       0.000       0.000    
   8    0.000       0.000       0.000       0.000       0.000       0.000       0.000       0.000       0.000       0.000    
   9    0.000       0.000       0.000       0.000       0.000       0.000       0.000       0.000       0.000       0.000    
  10    0.000       0.000       0.000       0.000       0.000       0.000       0.000       0.000       0.000       0.000    
  11    0.000       0.000       0.000       0.000       0.000       0.000       0.000       0.000       0.000       0.000    
  12    0.000       0.000       0.000       0.000       0.000       0.000       0.000       0.000       0.000       0.000    
  13    0.000       0.000       0.000       0.000       0.000       0.000       0.000       0.000       0.000       0.000    
  14    0.000       0.000       0.000       0.000       0.000       0.000       0.000       0.000       0.000       0.000    
  15    0.000       0.000       0.000       0.000       0.000       0.000       0.000       0.000       0.000       0.000    

                  ET RATE =  1.000000E-10

 USING ET EXTINCTION DEPTH FROM PREVIOUS STRESS PERIOD. CURRENT PERIOD IS:      15

 USING EXTINCTION WATER CONTENT FROM PREVIOUS STRESS PERIOD. CURRENT PERIOD IS:      15

 PROCESSING AWU STRESS PERIOD DATA

 READING AWU STRESS PERIOD DATA

 READING IRRIGATION STREAM

 READING IRRIGATION WELL

 READING SUPPLEMENTAL WEL

 END PROCESSING AWU STRESS PERIOD DATA OPTIONS
 
 SOLVING FOR HEAD 
                                                   Max.-Head-Change                         Max.-Flux-Residual
  Residual-Control   Outer-Iter.   Inner-Iter.     Column Row Layer    Maximum-Head-Change  Column Row Layer    Maximum-Flux-Residual          L2-NORM 
          0                 1           2             6    8     1       0.2832964317E-02       6    8    1         0.1550466905E+00      0.3290168833E+00
          0                 2           2             6    8     1      -0.2807215562E-03       6    8    1        -0.1550470635E-01      0.3219384892E-01
          0                 3           1             6    8     1       0.2503546718E-04       6    8    1         0.1395423373E-02      0.2845613610E-02

    ------------------------------------------------
       NWT REQUIRED            3 OUTER ITERATIONS 
       AND A TOTAL OF          5 INNER ITERATIONS.
    ------------------------------------------------

 NO OUTPUT CONTROL FOR STRESS PERIOD   15   TIME STEP    1
 
 SOLVING FOR HEAD 
                                                   Max.-Head-Change                         Max.-Flux-Residual
  Residual-Control   Outer-Iter.   Inner-Iter.     Column Row Layer    Maximum-Head-Change  Column Row Layer    Maximum-Flux-Residual          L2-NORM 
          0                 1           2             6    8     1       0.2692928366E-02       6    8    1         0.1473060309E+00      0.3101221428E+00
          0                 2           2             6    8     1      -0.2668452110E-03       6    8    1        -0.1473063658E-01      0.3033822750E-01
          0                 3           1             6    8     1       0.2379793958E-04       6    8    1         0.1325757125E-02      0.2682269879E-02

    ------------------------------------------------
       NWT REQUIRED            3 OUTER ITERATIONS 
       AND A TOTAL OF          5 INNER ITERATIONS.
    ------------------------------------------------

 NO OUTPUT CONTROL FOR STRESS PERIOD   15   TIME STEP    2
 
 SOLVING FOR HEAD 
                                                   Max.-Head-Change                         Max.-Flux-Residual
  Residual-Control   Outer-Iter.   Inner-Iter.     Column Row Layer    Maximum-Head-Change  Column Row Layer    Maximum-Flux-Residual          L2-NORM 
          0                 1           2             6    8     1       0.2561427048E-02       6    8    1         0.1400400144E+00      0.2928503081E+00
          0                 2           2             6    8     1      -0.2538145761E-03       6    8    1        -0.1400403153E-01      0.2864387956E-01
          0                 3           1             6    8     1       0.2263583449E-04       6    8    1         0.1260362697E-02      0.2535719602E-02

    ------------------------------------------------
       NWT REQUIRED            3 OUTER ITERATIONS 
       AND A TOTAL OF          5 INNER ITERATIONS.
    ------------------------------------------------

 NO OUTPUT CONTROL FOR STRESS PERIOD   15   TIME STEP    3
 
 SOLVING FOR HEAD 
                                                   Max.-Head-Change                         Max.-Flux-Residual
  Residual-Control   Outer-Iter.   Inner-Iter.     Column Row Layer    Maximum-Head-Change  Column Row Layer    Maximum-Flux-Residual          L2-NORM 
          0                 1           2             6    8     1       0.2437338932E-02       6    8    1         0.1331871718E+00      0.2770367164E+00
          0                 2           2             6    8     1      -0.2415185275E-03       6    8    1        -0.1331874423E-01      0.2708663853E-01
          0                 3           1             6    8     1       0.2153924151E-04       6    8    1         0.1198686860E-02      0.2397334537E-02

    ------------------------------------------------
       NWT REQUIRED            3 OUTER ITERATIONS 
       AND A TOTAL OF          5 INNER ITERATIONS.
    ------------------------------------------------

 NO OUTPUT CONTROL FOR STRESS PERIOD   15   TIME STEP    4
 
 SOLVING FOR HEAD 
                                                   Max.-Head-Change                         Max.-Flux-Residual
  Residual-Control   Outer-Iter.   Inner-Iter.     Column Row Layer    Maximum-Head-Change  Column Row Layer    Maximum-Flux-Residual          L2-NORM 
          0                 1           2             6    8     1       0.2320437130E-02       6    8    1         0.1267338030E+00      0.2625594547E+00
          0                 2           2             6    8     1      -0.2299345817E-03       6    8    1        -0.1267340464E-01      0.2566220024E-01
          0                 3           1             6    8     1       0.2050615543E-04       6    8    1         0.1140606311E-02      0.2272164093E-02

    ------------------------------------------------
       NWT REQUIRED            3 OUTER ITERATIONS 
       AND A TOTAL OF          5 INNER ITERATIONS.
    ------------------------------------------------

 NO OUTPUT CONTROL FOR STRESS PERIOD   15   TIME STEP    5
 
 SOLVING FOR HEAD 
                                                   Max.-Head-Change                         Max.-Flux-Residual
  Residual-Control   Outer-Iter.   Inner-Iter.     Column Row Layer    Maximum-Head-Change  Column Row Layer    Maximum-Flux-Residual          L2-NORM 
          0                 1           2             6    8     1       0.2210242429E-02       6    8    1         0.1206533072E+00      0.2492918556E+00
          0                 2           2             6    8     1      -0.2190152536E-03       6    8    1        -0.1206535265E-01      0.2435568058E-01
          0                 3           1             6    8     1       0.1953234210E-04       6    8    1         0.1085881657E-02      0.2158201548E-02

    ------------------------------------------------
       NWT REQUIRED            3 OUTER ITERATIONS 
       AND A TOTAL OF          5 INNER ITERATIONS.
    ------------------------------------------------

 NO OUTPUT CONTROL FOR STRESS PERIOD   15   TIME STEP    6
 
 SOLVING FOR HEAD 
                                                   Max.-Head-Change                         Max.-Flux-Residual
  Residual-Control   Outer-Iter.   Inner-Iter.     Column Row Layer    Maximum-Head-Change  Column Row Layer    Maximum-Flux-Residual          L2-NORM 
          0                 1           2             6    8     1       0.2106571286E-02       6    8    1         0.1149356491E+00      0.2371413118E+00
          0                 2           2             6    8     1      -0.2087423545E-03       6    8    1        -0.1149358470E-01      0.2315758755E-01
          0                 3           1             6    8     1       0.1861617892E-04       6    8    1         0.1034422560E-02      0.2052057154E-02

    ------------------------------------------------
       NWT REQUIRED            3 OUTER ITERATIONS 
       AND A TOTAL OF          5 INNER ITERATIONS.
    ------------------------------------------------

 NO OUTPUT CONTROL FOR STRESS PERIOD   15   TIME STEP    7
 
 SOLVING FOR HEAD 
                                                   Max.-Head-Change                         Max.-Flux-Residual
  Residual-Control   Outer-Iter.   Inner-Iter.     Column Row Layer    Maximum-Head-Change  Column Row Layer    Maximum-Flux-Residual          L2-NORM 
          0                 1           2             6    8     1       0.2008464854E-02       6    8    1         0.1095268167E+00      0.2259825918E+00
          0                 2           2             6    8     1      -0.1990208704E-03       6    8    1        -0.1095269952E-01      0.2205574550E-01
          0                 3           1             6    8     1       0.1774919220E-04       6    8    1         0.9857428988E-03      0.1954946197E-02

    ------------------------------------------------
       NWT REQUIRED            3 OUTER ITERATIONS 
       AND A TOTAL OF          5 INNER ITERATIONS.
    ------------------------------------------------

 NO OUTPUT CONTROL FOR STRESS PERIOD   15   TIME STEP    8
 
 SOLVING FOR HEAD 
                                                   Max.-Head-Change                         Max.-Flux-Residual
  Residual-Control   Outer-Iter.   Inner-Iter.     Column Row Layer    Maximum-Head-Change  Column Row Layer    Maximum-Flux-Residual          L2-NORM 
          0                 1           2             6    8     1       0.1916085448E-02       6    8    1         0.1044363774E+00      0.2157401450E+00
          0                 2           2             6    8     1      -0.1898668864E-03       6    8    1        -0.1044365388E-01      0.2104374307E-01
          0                 3           1             6    8     1       0.1693281664E-04       6    8    1         0.9399288065E-03      0.1866574275E-02

    ------------------------------------------------
       NWT REQUIRED            3 OUTER ITERATIONS 
       AND A TOTAL OF          5 INNER ITERATIONS.
    ------------------------------------------------

 NO OUTPUT CONTROL FOR STRESS PERIOD   15   TIME STEP    9
 
 SOLVING FOR HEAD 
                                                   Max.-Head-Change                         Max.-Flux-Residual
  Residual-Control   Outer-Iter.   Inner-Iter.     Column Row Layer    Maximum-Head-Change  Column Row Layer    Maximum-Flux-Residual          L2-NORM 
          0                 1           2             6    8     1       0.1829068876E-02       6    8    1         0.9964309384E-01      0.2063419810E+00
          0                 2           2             6    8     1      -0.1812443126E-03       6    8    1        -0.9964323995E-02      0.2011525089E-01
          0                 3           1             6    8     1       0.1616383334E-04       6    8    1         0.8967891206E-03      0.1785976935E-02

    ------------------------------------------------
       NWT REQUIRED            3 OUTER ITERATIONS 
       AND A TOTAL OF          5 INNER ITERATIONS.
    ------------------------------------------------

 NO OUTPUT CONTROL FOR STRESS PERIOD   15   TIME STEP   10
 
 SOLVING FOR HEAD 
                                                   Max.-Head-Change                         Max.-Flux-Residual
  Residual-Control   Outer-Iter.   Inner-Iter.     Column Row Layer    Maximum-Head-Change  Column Row Layer    Maximum-Flux-Residual          L2-NORM 
          0                 1           2             6    8     1       0.1746520016E-02       6    8    1         0.9509841049E-01      0.1976891997E+00
          0                 2           2             6    8     1      -0.1730644512E-03       6    8    1        -0.9509854298E-02      0.1925695629E-01
          0                 3           1             6    8     1       0.1543433222E-04       6    8    1         0.8558868585E-03      0.1709860046E-02

    ------------------------------------------------
       NWT REQUIRED            3 OUTER ITERATIONS 
       AND A TOTAL OF          5 INNER ITERATIONS.
    ------------------------------------------------

 NO OUTPUT CONTROL FOR STRESS PERIOD   15   TIME STEP   11
 
 SOLVING FOR HEAD 
                                                   Max.-Head-Change                         Max.-Flux-Residual
  Residual-Control   Outer-Iter.   Inner-Iter.     Column Row Layer    Maximum-Head-Change  Column Row Layer    Maximum-Flux-Residual          L2-NORM 
          0                 1           2             6    8     1       0.1668695062E-02       6    8    1         0.9081520058E-01      0.1897298595E+00
          0                 2           2             6    8     1      -0.1653526875E-03       6    8    1        -0.9081532065E-02      0.1846646035E-01
          0                 3           1             6    8     1       0.1474657733E-04       6    8    1         0.8173378551E-03      0.1639364227E-02

    ------------------------------------------------
       NWT REQUIRED            3 OUTER ITERATIONS 
       AND A TOTAL OF          5 INNER ITERATIONS.
    ------------------------------------------------

 NO OUTPUT CONTROL FOR STRESS PERIOD   15   TIME STEP   12
 
 SOLVING FOR HEAD 
                                                   Max.-Head-Change                         Max.-Flux-Residual
  Residual-Control   Outer-Iter.   Inner-Iter.     Column Row Layer    Maximum-Head-Change  Column Row Layer    Maximum-Flux-Residual          L2-NORM 
          0                 1           2             6    8     1       0.1595294453E-02       6    8    1         0.8677709881E-01      0.1824057391E+00
          0                 2           2             6    8     1      -0.1580793386E-03       6    8    1        -0.8677720780E-02      0.1773853284E-01
          0                 3           1             6    8     1       0.1409792175E-04       6    8    1         0.7809948622E-03      0.1575277169E-02

    ------------------------------------------------
       NWT REQUIRED            3 OUTER ITERATIONS 
       AND A TOTAL OF          5 INNER ITERATIONS.
    ------------------------------------------------

 NO OUTPUT CONTROL FOR STRESS PERIOD   15   TIME STEP   13
 
 SOLVING FOR HEAD 
                                                   Max.-Head-Change                         Max.-Flux-Residual
  Residual-Control   Outer-Iter.   Inner-Iter.     Column Row Layer    Maximum-Head-Change  Column Row Layer    Maximum-Flux-Residual          L2-NORM 
          0                 1           2             6    8     1       0.1525486551E-02       6    8    1         0.8293890187E-01      0.1756375124E+00
          0                 2           2             6    8     1      -0.1511619953E-03       6    8    1        -0.8293900085E-02      0.1706497616E-01
          0                 3           1             6    8     1       0.1348101532E-04       6    8    1         0.7464510059E-03      0.1516013794E-02

    ------------------------------------------------
       NWT REQUIRED            3 OUTER ITERATIONS 
       AND A TOTAL OF          5 INNER ITERATIONS.
    ------------------------------------------------

 NO OUTPUT CONTROL FOR STRESS PERIOD   15   TIME STEP   14
 
 SOLVING FOR HEAD 
                                                   Max.-Head-Change                         Max.-Flux-Residual
  Residual-Control   Outer-Iter.   Inner-Iter.     Column Row Layer    Maximum-Head-Change  Column Row Layer    Maximum-Flux-Residual          L2-NORM 
          0                 1           2             6    8     1       0.1459856940E-02       6    8    1         0.7933160777E-01      0.1694055001E+00
          0                 2           2             6    8     1      -0.1446586839E-03       6    8    1        -0.7933169750E-02      0.1644323754E-01
          0                 3           1             6    8     1       0.1290103378E-04       6    8    1         0.7139852805E-03      0.1460846840E-02

    ------------------------------------------------
       NWT REQUIRED            3 OUTER ITERATIONS 
       AND A TOTAL OF          5 INNER ITERATIONS.
    ------------------------------------------------

 NO OUTPUT CONTROL FOR STRESS PERIOD   15   TIME STEP   15
 
 SOLVING FOR HEAD 
                                                   Max.-Head-Change                         Max.-Flux-Residual
  Residual-Control   Outer-Iter.   Inner-Iter.     Column Row Layer    Maximum-Head-Change  Column Row Layer    Maximum-Flux-Residual          L2-NORM 
          0                 1           2             6    8     1       0.1397605505E-02       6    8    1         0.7591145196E-01      0.1636421371E+00
          0                 2           2             6    8     1      -0.1384901208E-03       6    8    1        -0.7591153382E-02      0.1586752549E-01
          0                 3           1             6    8     1       0.1235090497E-04       6    8    1         0.6832037957E-03      0.1410422844E-02

    ------------------------------------------------
       NWT REQUIRED            3 OUTER ITERATIONS 
       AND A TOTAL OF          5 INNER ITERATIONS.
    ------------------------------------------------

 NO OUTPUT CONTROL FOR STRESS PERIOD   15   TIME STEP   16
 
 SOLVING FOR HEAD 
                                                   Max.-Head-Change                         Max.-Flux-Residual
  Residual-Control   Outer-Iter.   Inner-Iter.     Column Row Layer    Maximum-Head-Change  Column Row Layer    Maximum-Flux-Residual          L2-NORM 
          0                 1           2             6    8     1       0.1338519401E-02       6    8    1         0.7266657847E-01      0.1583119000E+00
          0                 2           2             6    8     1      -0.1326352142E-03       6    8    1        -0.7266665291E-02      0.1533358801E-01
          0                 3           1             6    8     1       0.1182874942E-04       6    8    1         0.6539998726E-03      0.1362521786E-02

    ------------------------------------------------
       NWT REQUIRED            3 OUTER ITERATIONS 
       AND A TOTAL OF          5 INNER ITERATIONS.
    ------------------------------------------------

 NO OUTPUT CONTROL FOR STRESS PERIOD   15   TIME STEP   17
 
 SOLVING FOR HEAD 
                                                   Max.-Head-Change                         Max.-Flux-Residual
  Residual-Control   Outer-Iter.   Inner-Iter.     Column Row Layer    Maximum-Head-Change  Column Row Layer    Maximum-Flux-Residual          L2-NORM 
          0                 1           2             6    8     1       0.1282670531E-02       6    8    1         0.6960077367E-01      0.1533804758E+00
          0                 2           2             6    8     1      -0.1271010896E-03       6    8    1        -0.6960084171E-02      0.1484008216E-01
          0                 3           1             6    8     1       0.1133520222E-04       6    8    1         0.6264075796E-03      0.1319281605E-02

    ------------------------------------------------
       NWT REQUIRED            3 OUTER ITERATIONS 
       AND A TOTAL OF          5 INNER ITERATIONS.
    ------------------------------------------------

 NO OUTPUT CONTROL FOR STRESS PERIOD   15   TIME STEP   18
 
 SOLVING FOR HEAD 
                                                   Max.-Head-Change                         Max.-Flux-Residual
  Residual-Control   Outer-Iter.   Inner-Iter.     Column Row Layer    Maximum-Head-Change  Column Row Layer    Maximum-Flux-Residual          L2-NORM 
          0                 1           2             6    8     1       0.1229855686E-02       6    8    1         0.6670293852E-01      0.1488071926E+00
          0                 2           2             6    8     1      -0.1218676101E-03       6    8    1        -0.6670300080E-02      0.1438039783E-01
          0                 3           1             6    8     1       0.1086846691E-04       6    8    1         0.6003270082E-03      0.1278404890E-02

    ------------------------------------------------
       NWT REQUIRED            3 OUTER ITERATIONS 
       AND A TOTAL OF          5 INNER ITERATIONS.
    ------------------------------------------------

 NO OUTPUT CONTROL FOR STRESS PERIOD   15   TIME STEP   19
 
 SOLVING FOR HEAD 
                                                   Max.-Head-Change                         Max.-Flux-Residual
  Residual-Control   Outer-Iter.   Inner-Iter.     Column Row Layer    Maximum-Head-Change  Column Row Layer    Maximum-Flux-Residual          L2-NORM 
          0                 1           2             6    8     1       0.1179626973E-02       6    8    1         0.6394769883E-01      0.1445658888E+00
          0                 2           2             6    8     1      -0.1168903938E-03       6    8    1        -0.6394775575E-02      0.1395326815E-01
          0                 3           1             6    8     1       0.1042458660E-04       6    8    1         0.5755298232E-03      0.1240864999E-02

    ------------------------------------------------
       NWT REQUIRED            3 OUTER ITERATIONS 
       AND A TOTAL OF          5 INNER ITERATIONS.
    ------------------------------------------------

 NO OUTPUT CONTROL FOR STRESS PERIOD   15   TIME STEP   20
 
 SOLVING FOR HEAD 
                                                   Max.-Head-Change                         Max.-Flux-Residual
  Residual-Control   Outer-Iter.   Inner-Iter.     Column Row Layer    Maximum-Head-Change  Column Row Layer    Maximum-Flux-Residual          L2-NORM 
          0                 1           2             6    8     1       0.1132089688E-02       6    8    1         0.6134147576E-01      0.1406189640E+00
          0                 2           2             6    8     1      -0.1121798732E-03       6    8    1        -0.6134152765E-02      0.1355558217E-01
          0                 3           1             6    8     1       0.1000448985E-04       6    8    1         0.5520737600E-03      0.1205395449E-02

    ------------------------------------------------
       NWT REQUIRED            3 OUTER ITERATIONS 
       AND A TOTAL OF          5 INNER ITERATIONS.
    ------------------------------------------------

 NO OUTPUT CONTROL FOR STRESS PERIOD   15   TIME STEP   21
 
 SOLVING FOR HEAD 
                                                   Max.-Head-Change                         Max.-Flux-Residual
  Residual-Control   Outer-Iter.   Inner-Iter.     Column Row Layer    Maximum-Head-Change  Column Row Layer    Maximum-Flux-Residual          L2-NORM 
          0                 1           2             6    8     1       0.1086808892E-02       6    8    1         0.5886007177E-01      0.1369452665E+00
          0                 2           1             6    8     1      -0.1076929517E-03       6    8    1        -0.5886011922E-02      0.1318465700E-01
          0                 3           1             6    8     1       0.9604334949E-05       6    8    1         0.5297411069E-03      0.1172424088E-02

    ------------------------------------------------
       NWT REQUIRED            3 OUTER ITERATIONS 
       AND A TOTAL OF          4 INNER ITERATIONS.
    ------------------------------------------------

 NO OUTPUT CONTROL FOR STRESS PERIOD   15   TIME STEP   22
 
 SOLVING FOR HEAD 
                                                   Max.-Head-Change                         Max.-Flux-Residual
  Residual-Control   Outer-Iter.   Inner-Iter.     Column Row Layer    Maximum-Head-Change  Column Row Layer    Maximum-Flux-Residual          L2-NORM 
          0                 1           2             6    8     1       0.1043919719E-02       6    8    1         0.5651058003E-01      0.1335244418E+00
          0                 2           1             6    8     1      -0.1034430190E-03       6    8    1        -0.5651062377E-02      0.1283799581E-01
          0                 3           1             6    8     1       0.9225314718E-05       6    8    1         0.5085956352E-03      0.1141728422E-02

    ------------------------------------------------
       NWT REQUIRED            3 OUTER ITERATIONS 
       AND A TOTAL OF          4 INNER ITERATIONS.
    ------------------------------------------------

 NO OUTPUT CONTROL FOR STRESS PERIOD   15   TIME STEP   23
 
 SOLVING FOR HEAD 
                                                   Max.-Head-Change                         Max.-Flux-Residual
  Residual-Control   Outer-Iter.   Inner-Iter.     Column Row Layer    Maximum-Head-Change  Column Row Layer    Maximum-Flux-Residual          L2-NORM 
          0                 1           2             6    8     1       0.1003281004E-02       6    8    1         0.5428518213E-01      0.1303388659E+00
          0                 2           1             6    8     1      -0.9941608625E-04       6    8    1        -0.5428522218E-02      0.1251493187E-01

    ------------------------------------------------
       NWT REQUIRED            2 OUTER ITERATIONS 
       AND A TOTAL OF          3 INNER ITERATIONS.
    ------------------------------------------------

 NO OUTPUT CONTROL FOR STRESS PERIOD   15   TIME STEP   24
 
 SOLVING FOR HEAD 
                                                   Max.-Head-Change                         Max.-Flux-Residual
  Residual-Control   Outer-Iter.   Inner-Iter.     Column Row Layer    Maximum-Head-Change  Column Row Layer    Maximum-Flux-Residual          L2-NORM 
          0                 1           2             6    8     1       0.9648789442E-03       6    8    1         0.5218335875E-01      0.1273832206E+00
          0                 2           1             6    8     1      -0.9561078626E-04       6    8    1        -0.5218339541E-02      0.1221496166E-01

    ------------------------------------------------
       NWT REQUIRED            2 OUTER ITERATIONS 
       AND A TOTAL OF          3 INNER ITERATIONS.
    ------------------------------------------------

 NO OUTPUT CONTROL FOR STRESS PERIOD   15   TIME STEP   25
 
 SOLVING FOR HEAD 
                                                   Max.-Head-Change                         Max.-Flux-Residual
  Residual-Control   Outer-Iter.   Inner-Iter.     Column Row Layer    Maximum-Head-Change  Column Row Layer    Maximum-Flux-Residual          L2-NORM 
          0                 1           2             6    8     1       0.9284431126E-03       6    8    1         0.5018972185E-01      0.1246162910E+00
          0                 2           1             6    8     1      -0.9200032234E-04       6    8    1        -0.5018975573E-02      0.1193278561E-01

    ------------------------------------------------
       NWT REQUIRED            2 OUTER ITERATIONS 
       AND A TOTAL OF          3 INNER ITERATIONS.
    ------------------------------------------------

 NO OUTPUT CONTROL FOR STRESS PERIOD   15   TIME STEP   26
 
 SOLVING FOR HEAD 
                                                   Max.-Head-Change                         Max.-Flux-Residual
  Residual-Control   Outer-Iter.   Inner-Iter.     Column Row Layer    Maximum-Head-Change  Column Row Layer    Maximum-Flux-Residual          L2-NORM 
          0                 1           2             6    8     1       0.8938592016E-03       6    8    1         0.4829816651E-01      0.1220330636E+00
          0                 2           1             6    8     1      -0.8857336707E-04       6    8    1        -0.4829819754E-02      0.1166957300E-01

    ------------------------------------------------
       NWT REQUIRED            2 OUTER ITERATIONS 
       AND A TOTAL OF          3 INNER ITERATIONS.
    ------------------------------------------------

 NO OUTPUT CONTROL FOR STRESS PERIOD   15   TIME STEP   27
 
 SOLVING FOR HEAD 
                                                   Max.-Head-Change                         Max.-Flux-Residual
  Residual-Control   Outer-Iter.   Inner-Iter.     Column Row Layer    Maximum-Head-Change  Column Row Layer    Maximum-Flux-Residual          L2-NORM 
          0                 1           2             6    8     1       0.8610161966E-03       6    8    1         0.4650275986E-01      0.1196069356E+00
          0                 2           1             6    8     1      -0.8531892069E-04       6    8    1        -0.4650278860E-02      0.1142143870E-01

    ------------------------------------------------
       NWT REQUIRED            2 OUTER ITERATIONS 
       AND A TOTAL OF          3 INNER ITERATIONS.
    ------------------------------------------------

 NO OUTPUT CONTROL FOR STRESS PERIOD   15   TIME STEP   28
 
 SOLVING FOR HEAD 
                                                   Max.-Head-Change                         Max.-Flux-Residual
  Residual-Control   Outer-Iter.   Inner-Iter.     Column Row Layer    Maximum-Head-Change  Column Row Layer    Maximum-Flux-Residual          L2-NORM 
          0                 1           2             6    8     1       0.8295483629E-03       6    8    1         0.4478290936E-01      0.1173259828E+00
          0                 2           1             6    8     1      -0.8220074072E-04       6    8    1        -0.4478293575E-02      0.1118804979E-01

    ------------------------------------------------
       NWT REQUIRED            2 OUTER ITERATIONS 
       AND A TOTAL OF          3 INNER ITERATIONS.
    ------------------------------------------------

 NO OUTPUT CONTROL FOR STRESS PERIOD   15   TIME STEP   29
 
 SOLVING FOR HEAD 
                                                   Max.-Head-Change                         Max.-Flux-Residual
  Residual-Control   Outer-Iter.   Inner-Iter.     Column Row Layer    Maximum-Head-Change  Column Row Layer    Maximum-Flux-Residual          L2-NORM 
          0                 1           2             4   13     1       0.3689185496E-02       4   13    1         0.2111084838E+00      0.4570118782E+00
          0                 2           2             7   13     1      -0.3577406664E-03       4   13    1        -0.2064380660E-01      0.4752587665E-01
          0                 3           1             7   13     1       0.3189742525E-04       4   13    1         0.1833881277E-02      0.4194088638E-02

    ------------------------------------------------
       NWT REQUIRED            3 OUTER ITERATIONS 
       AND A TOTAL OF          5 INNER ITERATIONS.
    ------------------------------------------------

 NO OUTPUT CONTROL FOR STRESS PERIOD   15   TIME STEP   30



 STREAM LISTING     PERIOD     15   STEP       30

 LAYER ROW COL. STREAM  RCH.  FLOW INTO     FLOW TO   FLOW OUT OF   OVRLND.     DIRECT     STREAM       STREAM     STREAM     STREAM   STREAMBED  STREAMBED
                SEG.NO.  NO.  STRM. RCH.    AQUIFER    STRM. RCH.    RUNOFF     PRECIP       ET          HEAD       DEPTH      WIDTH   CONDCTNC.   GRADIENT

   1    1    1     1     1    1.9897E+01  2.2004E-01   1.9677E+01  0.000E+00  0.000E+00  0.000E+00  1.09414E+03  1.097E+00  1.194E+01  5.371E-02  1.366E+00
   1    2    2     1     2    1.9677E+01  3.3950E-01   1.9338E+01  0.000E+00  0.000E+00  0.000E+00  1.08915E+03  1.092E+00  1.185E+01  8.296E-02  1.364E+00
   1    3    3     1     3    1.9338E+01  2.8830E-01   1.9049E+01  0.000E+00  0.000E+00  0.000E+00  1.08351E+03  1.087E+00  1.176E+01  7.054E-02  1.362E+00
   1    3    4     1     4    1.9049E+01  2.6446E-01   1.8785E+01  0.000E+00  0.000E+00  0.000E+00  1.07849E+03  1.082E+00  1.167E+01  6.478E-02  1.361E+00
   1    4    5     2     1    1.6785E+01  3.0775E-01   1.6477E+01  0.000E+00  0.000E+00  0.000E+00  1.07288E+03  9.456E-01  1.200E+01  7.800E-02  1.315E+00
   1    5    6     2     2    1.6477E+01  2.3618E-01   1.6241E+01  0.000E+00  0.000E+00  0.000E+00  1.06745E+03  9.363E-01  1.200E+01  6.000E-02  1.312E+00
   1    6    6     2     3    1.6241E+01  2.3569E-01   1.6005E+01  0.000E+00  0.000E+00  0.000E+00  1.06272E+03  9.281E-01  1.200E+01  6.000E-02  1.309E+00
   1    7    6     2     4    1.6005E+01  2.3520E-01   1.5770E+01  0.000E+00  0.000E+00  0.000E+00  1.05800E+03  9.200E-01  1.200E+01  6.000E-02  1.307E+00
   1    8    6     2     5    1.5770E+01  2.3471E-01   1.5535E+01  0.000E+00  0.000E+00  0.000E+00  1.05327E+03  9.118E-01  1.200E+01  6.000E-02  1.304E+00
   1    3    5     3     1    2.0000E+00  2.8252E-01   1.7175E+00  0.000E+00  0.000E+00  0.000E+00  1.07555E+03  1.909E+00  9.636E+00  7.227E-02  1.955E+00
   1    3    6     3     2    1.7175E+00  2.4905E-01   1.4684E+00  0.000E+00  0.000E+00  0.000E+00  1.07264E+03  1.727E+00  8.909E+00  6.682E-02  1.864E+00
   1    3    7     3     3    1.4684E+00  1.9718E-01   1.2712E+00  0.000E+00  0.000E+00  0.000E+00  1.06987E+03  1.555E+00  8.218E+00  5.547E-02  1.777E+00
   1    4    8     3     4    1.2712E+00  2.2567E-01   1.0456E+00  0.000E+00  0.000E+00  0.000E+00  1.06682E+03  1.364E+00  7.455E+00  6.709E-02  1.682E+00
   1    5    8     3     5    1.0456E+00  1.5790E-01   8.8768E-01  0.000E+00  0.000E+00  0.000E+00  1.06362E+03  1.164E+00  6.655E+00  4.991E-02  1.582E+00
   1    6    8     3     6    8.8768E-01  5.5980E-02   8.3170E-01  0.000E+00  0.000E+00  0.000E+00  1.06158E+03  1.036E+00  6.145E+00  1.844E-02  1.518E+00
   1    5   10     4     1    1.0000E+01  9.0919E-02   9.9091E+00  0.000E+00  0.000E+00  0.000E+00  1.07836E+03  6.368E-01  1.000E+01  2.500E-02  1.212E+00
   1    5    9     4     2    9.9091E+00  1.8158E-01   9.7275E+00  0.000E+00  0.000E+00  0.000E+00  1.07154E+03  6.315E-01  1.000E+01  5.000E-02  1.211E+00
   1    6    8     4     3    9.7275E+00  1.2689E-01   9.6006E+00  0.000E+00  0.000E+00  0.000E+00  1.06381E+03  6.256E-01  1.000E+01  3.500E-02  1.209E+00
   1    6    8     5     1    1.0432E+01  2.2686E-01   1.0205E+01  0.000E+00  0.000E+00  0.000E+00  1.05868E+03  6.790E-01  1.542E+01  6.166E-02  1.226E+00
   1    7    7     5     2    1.0205E+01  2.7894E-01   9.9265E+00  0.000E+00  0.000E+00  0.000E+00  1.05417E+03  6.732E-01  1.519E+01  7.594E-02  1.224E+00
   1    8    7     5     3    9.9265E+00  1.9221E-01   9.7343E+00  0.000E+00  0.000E+00  0.000E+00  1.04992E+03  6.676E-01  1.497E+01  5.241E-02  1.223E+00
   1    8    6     5     4    9.7343E+00  1.3577E-01   9.5985E+00  0.000E+00  0.000E+00  0.000E+00  1.04691E+03  6.637E-01  1.482E+01  3.706E-02  1.221E+00
   1    9    6     6     1    2.5134E+01  2.5328E-01   2.4881E+01  0.000E+00  0.000E+00  0.000E+00  1.04395E+03  1.221E+00  1.200E+01  6.000E-02  1.407E+00
   1   10    7     6     2    2.4881E+01  2.5283E-01   2.4628E+01  0.000E+00  0.000E+00  0.000E+00  1.03940E+03  1.214E+00  1.200E+01  6.000E-02  1.405E+00
   1   11    7     6     3    2.4628E+01  2.5238E-01   2.4375E+01  0.000E+00  0.000E+00  0.000E+00  1.03484E+03  1.206E+00  1.200E+01  6.000E-02  1.402E+00
   1   12    7     6     4    2.4375E+01  2.5194E-01   2.4124E+01  0.000E+00  0.000E+00  0.000E+00  1.03029E+03  1.199E+00  1.200E+01  6.000E-02  1.400E+00
   1   13    7     6     5    2.4124E+01  1.1513E-03   2.4122E+01  0.000E+00  0.000E+00  0.000E+00  1.02710E+03  1.195E+00  1.200E+01  2.400E-02  1.599E-02
   1   14    9     7     1    1.5000E+02  1.3392E+00   1.4866E+02  0.000E+00  0.000E+00  0.000E+00  1.03987E+03  2.288E+00  5.529E+01  5.593E-01  7.981E-01
   1   13    8     7     2    1.4866E+02  1.8393E+00   1.4682E+02  0.000E+00  0.000E+00  0.000E+00  1.03478E+03  2.279E+00  5.526E+01  6.148E-01  9.973E-01
   1   13    7     7     3    1.4682E+02  1.4707E+00   1.4535E+02  0.000E+00  0.000E+00  0.000E+00  1.02969E+03  2.270E+00  5.522E+01  5.584E-01  8.778E-01
   1   13    6     8     1    1.6947E+02  9.0707E-01   1.6857E+02  0.000E+00  0.000E+00  0.000E+00  1.02482E+03  2.946E+00  4.271E+01  4.353E-01  6.946E-01
   1   13    5     8     2    1.6857E+02  1.5370E-01   1.6841E+02  0.000E+00  0.000E+00  0.000E+00  1.01857E+03  2.942E+00  4.266E+01  4.348E-01  1.178E-01
   1   13    4     8     3    1.6841E+02 -2.4229E+00   1.7084E+02  0.000E+00  0.000E+00  0.000E+00  1.01232E+03  2.950E+00  4.277E+01  4.359E+00 -1.853E-01
   1   13    3     8     4    1.7084E+02 -3.5491E+00   1.7438E+02  0.000E+00  0.000E+00  0.000E+00  1.00609E+03  2.969E+00  4.305E+01  4.387E+00 -2.697E-01
   1   13    2     8     5    1.7438E+02 -2.3965E+00   1.7678E+02  0.000E+00  0.000E+00  0.000E+00  9.99863E+02  2.988E+00  4.333E+01  4.415E+00 -1.809E-01
   1   13    1     8     6    1.7678E+02 -1.8572E+00   1.7864E+02  0.000E+00  0.000E+00  0.000E+00  9.94877E+02  3.002E+00  4.352E+01  2.661E+00 -2.326E-01
   1    6    8     9     1    0.0000E+00  0.0000E+00   0.0000E+00  0.000E+00  0.000E+00  0.000E+00  1.07850E+03  0.000E+00  4.000E+00  0.000E+00  1.000E+00





UNSATURATED ZONE PACKAGE VOLUMETRIC BUDGET FOR  TIME STEP    30 STRESS PERIOD   15
  ------------------------------------------------------------------------------



     CUMULATIVE VOLUMES      L**3       RATES FOR THIS TIME STEP      L**3/T
     ------------------                 ------------------------

           IN:                                      IN:
           ---                                      ---
        INFILTRATION =    56192156.8887          INFILTRATION =       0.0000E+00

          OUT:                                     OUT:
          ----                                     ----
              UZF ET =    41769767.9573                UZF ET =           0.0130
        UZF RECHARGE =     2401097.2334          UZF RECHARGE =           0.0035

            IN - OUT =    12021291.6980              IN - OUT =          -0.0166

          STORAGE:                                 STORAGE:
          --------                                 --------
      STORAGE CHANGE =    12038526.4847        STORAGE CHANGE =          -0.0166

 PERCENT DISCREPANCY IS DIFFERENCE BETWEEN IN-OUT MINUS CHANGE IN STORAGE
 DIVIDED BY THE AVERAGE OF IN AND OUT TIMES 100

 PERCENT DISCREPANCY =          -0.01     PERCENT DISCREPANCY =          -0.07






1
  VOLUMETRIC BUDGET FOR ENTIRE MODEL AT END OF TIME STEP   30, STRESS PERIOD  15
  ------------------------------------------------------------------------------

     CUMULATIVE VOLUMES      L**3       RATES FOR THIS TIME STEP      L**3/T
     ------------------                 ------------------------

           IN:                                      IN:
           ---                                      ---
    AWU WELLS            =    11225853.0000      AWU WELLS            =           0.0000
    DIVERSION SEGMENTS   =    44893080.0000      DIVERSION SEGMENTS   =           0.0000
    GW IRRIGATION        =           0.0000      GW IRRIGATION        =           0.0000
    SW IRRIGATION        =           0.0000      SW IRRIGATION        =           0.0000
    EFFICIENCY FACTOR GW =           0.0000      EFFICIENCY FACTOR GW =           0.0000
    EFFICIENCY FACTOR SW =           0.0000      EFFICIENCY FACTOR SW =           0.0000

                TOTAL IN =    56118932.0000                  TOTAL IN =           0.0000

          OUT:                                     OUT:
          ----                                     ----
    AWU WELLS            =           0.0000      AWU WELLS            =           0.0000
    DIVERSION SEGMENTS   =           0.0000      DIVERSION SEGMENTS   =           0.0000
    GW IRRIGATION        =    11225853.0000      GW IRRIGATION        =           0.0000
    SW IRRIGATION        =    44893080.0000      SW IRRIGATION        =           0.0000
    EFFICIENCY FACTOR GW =           0.0000      EFFICIENCY FACTOR GW =           0.0000
    EFFICIENCY FACTOR SW =           0.0000      EFFICIENCY FACTOR SW =           0.0000

               TOTAL OUT =    56118932.0000                 TOTAL OUT =           0.0000

                IN - OUT =           0.0000                  IN - OUT =           0.0000

     PERCENT DISCREPANCY =           0.00         PERCENT DISCREPANCY =           0.00



1
  VOLUMETRIC BUDGET FOR ENTIRE MODEL AT END OF TIME STEP   30, STRESS PERIOD  15
  ------------------------------------------------------------------------------

     CUMULATIVE VOLUMES      L**3       RATES FOR THIS TIME STEP      L**3/T
     ------------------                 ------------------------

           IN:                                      IN:
           ---                                      ---
             STORAGE     =    60217176.0000               STORAGE     =           0.4366
       CONSTANT HEAD     =           0.0000         CONSTANT HEAD     =           0.0000
     HEAD DEP BOUNDS     =    10542962.0000       HEAD DEP BOUNDS     =           0.2860
      STREAM LEAKAGE     =   430536256.0000        STREAM LEAKAGE     =          11.4848
        UZF RECHARGE     =     2401096.7500          UZF RECHARGE     =       3.5488E-03
               GW ET     =           0.0000                 GW ET     =           0.0000
     SURFACE LEAKAGE     =           0.0000       SURFACE LEAKAGE     =           0.0000
    AWU WELLS            =           0.0000      AWU WELLS            =           0.0000

                TOTAL IN =   503697472.0000                  TOTAL IN =          12.2109

          OUT:                                     OUT:
          ----                                     ----
             STORAGE     =    66001492.0000               STORAGE     =           1.6882
       CONSTANT HEAD     =           0.0000         CONSTANT HEAD     =           0.0000
     HEAD DEP BOUNDS     =    10590848.0000       HEAD DEP BOUNDS     =           0.2878
      STREAM LEAKAGE     =   361619104.0000        STREAM LEAKAGE     =          10.2257
        UZF RECHARGE     =           0.0000          UZF RECHARGE     =           0.0000
               GW ET     =    54263764.0000                 GW ET     =       1.0136E-02
     SURFACE LEAKAGE     =           0.0000       SURFACE LEAKAGE     =           0.0000
    AWU WELLS            =    11225853.0000      AWU WELLS            =           0.0000

               TOTAL OUT =   503701088.0000                 TOTAL OUT =          12.2119

                IN - OUT =       -3616.0000                  IN - OUT =      -9.3460E-04

     PERCENT DISCREPANCY =          -0.00         PERCENT DISCREPANCY =          -0.01






         TIME SUMMARY AT END OF TIME STEP   30 IN STRESS PERIOD   15
                    SECONDS     MINUTES      HOURS       DAYS        YEARS
                    -----------------------------------------------------------
   TIME STEP LENGTH  87600.      1460.0      24.333      1.0139     2.77588E-03
 STRESS PERIOD TIME 2.62800E+06  43800.      730.00      30.417     8.32763E-02
         TOTAL TIME 3.68784E+07 6.14640E+05  10244.      426.83      1.1686    
1
1
                            STRESS PERIOD NO.   16, LENGTH =   2628000.    
                            -----------------------------------------------

                              NUMBER OF TIME STEPS =    30

                               MULTIPLIER FOR DELT =     1.000

                            INITIAL TIME STEP SIZE =   87600.00    

 REUSING NON-PARAMETER GHB CELLS FROM LAST STRESS PERIOD

      2 GHB CELLS

 REUSING STREAM SEGMENT DATA FROM LAST STRESS PERIOD



            AREAL INFILTRATION RATE
 READING ON UNIT   19 WITH FORMAT: (10F4.0)            

            1           2           3           4           5           6           7           8           9          10
 ........................................................................................................................
   1    0.000       0.000       0.000       0.000       0.000       0.000       0.000       0.000       0.000       0.000    
   2    0.000       0.000       0.000       0.000       0.000       0.000       0.000       0.000       0.000       0.000    
   3    0.000       0.000       0.000       0.000       0.000       0.000       0.000       0.000       0.000       0.000    
   4    0.000       0.000       0.000       0.000       0.000       0.000       0.000       0.000       0.000       0.000    
   5    0.000       0.000       0.000       0.000       0.000       0.000       0.000       0.000       0.000       0.000    
   6    0.000       0.000       0.000       0.000       0.000       0.000       0.000       0.000       0.000       0.000    
   7    0.000       0.000       0.000       0.000       0.000       0.000       0.000       0.000       0.000       0.000    
   8    0.000       0.000       0.000       0.000       0.000       0.000       0.000       0.000       0.000       0.000    
   9    0.000       0.000       0.000       0.000       0.000       0.000       0.000       0.000       0.000       0.000    
  10    0.000       0.000       0.000       0.000       0.000       0.000       0.000       0.000       0.000       0.000    
  11    0.000       0.000       0.000       0.000       0.000       0.000       0.000       0.000       0.000       0.000    
  12    0.000       0.000       0.000       0.000       0.000       0.000       0.000       0.000       0.000       0.000    
  13    0.000       0.000       0.000       0.000       0.000       0.000       0.000       0.000       0.000       0.000    
  14    0.000       0.000       0.000       0.000       0.000       0.000       0.000       0.000       0.000       0.000    
  15    0.000       0.000       0.000       0.000       0.000       0.000       0.000       0.000       0.000       0.000    

                  ET RATE =  1.000000E-09

 USING ET EXTINCTION DEPTH FROM PREVIOUS STRESS PERIOD. CURRENT PERIOD IS:      16

 USING EXTINCTION WATER CONTENT FROM PREVIOUS STRESS PERIOD. CURRENT PERIOD IS:      16

 PROCESSING AWU STRESS PERIOD DATA

 READING AWU STRESS PERIOD DATA

 READING IRRIGATION STREAM

 READING IRRIGATION WELL

 READING SUPPLEMENTAL WEL

 END PROCESSING AWU STRESS PERIOD DATA OPTIONS
 
 SOLVING FOR HEAD 
                                                   Max.-Head-Change                         Max.-Flux-Residual
  Residual-Control   Outer-Iter.   Inner-Iter.     Column Row Layer    Maximum-Head-Change  Column Row Layer    Maximum-Flux-Residual          L2-NORM 
          0                 1           2             2   13     1       0.3636966207E-02       2   13    1         0.2048412904E+00      0.4449072359E+00
          0                 2           2             2   13     1      -0.3453808694E-03       2   13    1        -0.1962984658E-01      0.4353151885E-01
          0                 3           1             4   13     1       0.2959321402E-04       4   13    1         0.1726058816E-02      0.3837036254E-02

    ------------------------------------------------
       NWT REQUIRED            3 OUTER ITERATIONS 
       AND A TOTAL OF          5 INNER ITERATIONS.
    ------------------------------------------------

 NO OUTPUT CONTROL FOR STRESS PERIOD   16   TIME STEP    1
 
 SOLVING FOR HEAD 
                                                   Max.-Head-Change                         Max.-Flux-Residual
  Residual-Control   Outer-Iter.   Inner-Iter.     Column Row Layer    Maximum-Head-Change  Column Row Layer    Maximum-Flux-Residual          L2-NORM 
          0                 1           2             2   13     1       0.3366900463E-02       2   13    1         0.1896056119E+00      0.4217725632E+00
          0                 2           2             2   13     1      -0.3198017950E-03       2   13    1        -0.1817354216E-01      0.4128745466E-01
          0                 3           1             2   13     1       0.2718191684E-04       4   13    1         0.1565711365E-02      0.3641257473E-02

    ------------------------------------------------
       NWT REQUIRED            3 OUTER ITERATIONS 
       AND A TOTAL OF          5 INNER ITERATIONS.
    ------------------------------------------------

 NO OUTPUT CONTROL FOR STRESS PERIOD   16   TIME STEP    2
 
 SOLVING FOR HEAD 
                                                   Max.-Head-Change                         Max.-Flux-Residual
  Residual-Control   Outer-Iter.   Inner-Iter.     Column Row Layer    Maximum-Head-Change  Column Row Layer    Maximum-Flux-Residual          L2-NORM 
          0                 1           2             2   13     1       0.3117299756E-02       2   13    1         0.1755257072E+00      0.4009071176E+00
          0                 2           2             2   13     1      -0.2961692737E-03       2   13    1        -0.1682820111E-01      0.3926332662E-01
          0                 3           1             2   13     1       0.2520359459E-04       2   13    1         0.1445059543E-02      0.3466027037E-02

    ------------------------------------------------
       NWT REQUIRED            3 OUTER ITERATIONS 
       AND A TOTAL OF          5 INNER ITERATIONS.
    ------------------------------------------------

 NO OUTPUT CONTROL FOR STRESS PERIOD   16   TIME STEP    3
 
 SOLVING FOR HEAD 
                                                   Max.-Head-Change                         Max.-Flux-Residual
  Residual-Control   Outer-Iter.   Inner-Iter.     Column Row Layer    Maximum-Head-Change  Column Row Layer    Maximum-Flux-Residual          L2-NORM 
          0                 1           2             2   13     1       0.2886482695E-02       2   13    1         0.1625064248E+00      0.3820993080E+00
          0                 2           2             2   13     1      -0.2743046721E-03       2   13    1        -0.1558358700E-01      0.3744203332E-01
          0                 3           1             2   13     1       0.2333886325E-04       2   13    1         0.1337938215E-02      0.3309567303E-02

    ------------------------------------------------
       NWT REQUIRED            3 OUTER ITERATIONS 
       AND A TOTAL OF          5 INNER ITERATIONS.
    ------------------------------------------------

 NO OUTPUT CONTROL FOR STRESS PERIOD   16   TIME STEP    4
 
 SOLVING FOR HEAD 
                                                   Max.-Head-Change                         Max.-Flux-Residual
  Residual-Control   Outer-Iter.   Inner-Iter.     Column Row Layer    Maximum-Head-Change  Column Row Layer    Maximum-Flux-Residual          L2-NORM 
          0                 1           2             2   13     1       0.2673162211E-02       2   13    1         0.1504751428E+00      0.3651357891E+00
          0                 2           2             2   13     1      -0.2540723658E-03       2   13    1        -0.1443202437E-01      0.3579598605E-01
          0                 3           1             2   13     1       0.2162335728E-04       2   13    1         0.1239394635E-02      0.3167293293E-02

    ------------------------------------------------
       NWT REQUIRED            3 OUTER ITERATIONS 
       AND A TOTAL OF          5 INNER ITERATIONS.
    ------------------------------------------------

 NO OUTPUT CONTROL FOR STRESS PERIOD   16   TIME STEP    5
 
 SOLVING FOR HEAD 
                                                   Max.-Head-Change                         Max.-Flux-Residual
  Residual-Control   Outer-Iter.   Inner-Iter.     Column Row Layer    Maximum-Head-Change  Column Row Layer    Maximum-Flux-Residual          L2-NORM 
          0                 1           2             2   13     1       0.2475886435E-02       2   13    1         0.1393497372E+00      0.3498333555E+00
          0                 2           2             2   13     1      -0.2353628452E-03       2   13    1        -0.1336721236E-01      0.3431206634E-01
          0                 3           1             2    2     1       0.2056555171E-04       2   13    1         0.1148356082E-02      0.3039369520E-02

    ------------------------------------------------
       NWT REQUIRED            3 OUTER ITERATIONS 
       AND A TOTAL OF          5 INNER ITERATIONS.
    ------------------------------------------------

 NO OUTPUT CONTROL FOR STRESS PERIOD   16   TIME STEP    6
 
 SOLVING FOR HEAD 
                                                   Max.-Head-Change                         Max.-Flux-Residual
  Residual-Control   Outer-Iter.   Inner-Iter.     Column Row Layer    Maximum-Head-Change  Column Row Layer    Maximum-Flux-Residual          L2-NORM 
          0                 1           2             2    2     1       0.2309426809E-02       2   13    1         0.1290650106E+00      0.3360235554E+00
          0                 2           2             2    2     1      -0.2287765978E-03       2   13    1        -0.1238226848E-01      0.3297104208E-01
          0                 3           1             2    2     1       0.2040115083E-04       2    2    1         0.1087963134E-02      0.2922210465E-02

    ------------------------------------------------
       NWT REQUIRED            3 OUTER ITERATIONS 
       AND A TOTAL OF          5 INNER ITERATIONS.
    ------------------------------------------------

 NO OUTPUT CONTROL FOR STRESS PERIOD   16   TIME STEP    7
 
 SOLVING FOR HEAD 
                                                   Max.-Head-Change                         Max.-Flux-Residual
  Residual-Control   Outer-Iter.   Inner-Iter.     Column Row Layer    Maximum-Head-Change  Column Row Layer    Maximum-Flux-Residual          L2-NORM 
          0                 1           2             2    2     1       0.2291023657E-02       2    2    1         0.1199148063E+00      0.3235527480E+00
          0                 2           2             2    2     1      -0.2269527314E-03       2    2    1        -0.1199150104E-01      0.3175990521E-01
          0                 3           1             2    2     1       0.2023848624E-04       2    2    1         0.1079236117E-02      0.2817219366E-02

    ------------------------------------------------
       NWT REQUIRED            3 OUTER ITERATIONS 
       AND A TOTAL OF          5 INNER ITERATIONS.
    ------------------------------------------------

 NO OUTPUT CONTROL FOR STRESS PERIOD   16   TIME STEP    8
 
 SOLVING FOR HEAD 
                                                   Max.-Head-Change                         Max.-Flux-Residual
  Residual-Control   Outer-Iter.   Inner-Iter.     Column Row Layer    Maximum-Head-Change  Column Row Layer    Maximum-Flux-Residual          L2-NORM 
          0                 1           2             2    2     1       0.2272899841E-02       2    2    1         0.1189599063E+00      0.3122825514E+00
          0                 2           2             2    2     1      -0.2251565508E-03       2    2    1        -0.1189601064E-01      0.3066527484E-01
          0                 3           1             2    2     1       0.2007829152E-04       2    2    1         0.1070641996E-02      0.2722803107E-02

    ------------------------------------------------
       NWT REQUIRED            3 OUTER ITERATIONS 
       AND A TOTAL OF          5 INNER ITERATIONS.
    ------------------------------------------------

 NO OUTPUT CONTROL FOR STRESS PERIOD   16   TIME STEP    9
 
 SOLVING FOR HEAD 
                                                   Max.-Head-Change                         Max.-Flux-Residual
  Residual-Control   Outer-Iter.   Inner-Iter.     Column Row Layer    Maximum-Head-Change  Column Row Layer    Maximum-Flux-Residual          L2-NORM 
          0                 1           2             2    2     1       0.2255051106E-02       2    2    1         0.1180195003E+00      0.3020835220E+00
          0                 2           2             2    2     1      -0.2233876276E-03       2    2    1        -0.1180196965E-01      0.2967281753E-01
          0                 3           1             2    2     1       0.1992052736E-04       2    2    1         0.1062178306E-02      0.2636465231E-02

    ------------------------------------------------
       NWT REQUIRED            3 OUTER ITERATIONS 
       AND A TOTAL OF          5 INNER ITERATIONS.
    ------------------------------------------------

 NO OUTPUT CONTROL FOR STRESS PERIOD   16   TIME STEP   10
 
 SOLVING FOR HEAD 
                                                   Max.-Head-Change                         Max.-Flux-Residual
  Residual-Control   Outer-Iter.   Inner-Iter.     Column Row Layer    Maximum-Head-Change  Column Row Layer    Maximum-Flux-Residual          L2-NORM 
          0                 1           2             2    2     1       0.2237472796E-02       2    2    1         0.1170933679E+00      0.2928486655E+00
          0                 2           2             2    2     1      -0.2216455073E-03       2    2    1        -0.1170935601E-01      0.2877298269E-01
          0                 3           1             2    2     1       0.1976515374E-04       2    2    1         0.1053843106E-02      0.2559158441E-02

    ------------------------------------------------
       NWT REQUIRED            3 OUTER ITERATIONS 
       AND A TOTAL OF          5 INNER ITERATIONS.
    ------------------------------------------------

 NO OUTPUT CONTROL FOR STRESS PERIOD   16   TIME STEP   11
 
 SOLVING FOR HEAD 
                                                   Max.-Head-Change                         Max.-Flux-Residual
  Residual-Control   Outer-Iter.   Inner-Iter.     Column Row Layer    Maximum-Head-Change  Column Row Layer    Maximum-Flux-Residual          L2-NORM 
          0                 1           2             2    2     1       0.2220073386E-02       2    2    1         0.1161766946E+00      0.2844673693E+00
          0                 2           2             2    2     1      -0.2199211133E-03       2    2    1        -0.1161768830E-01      0.2795642912E-01
          0                 3           1             2    2     1       0.1961136121E-04       2    2    1         0.1045593000E-02      0.2487975589E-02

    ------------------------------------------------
       NWT REQUIRED            3 OUTER ITERATIONS 
       AND A TOTAL OF          5 INNER ITERATIONS.
    ------------------------------------------------

 NO OUTPUT CONTROL FOR STRESS PERIOD   16   TIME STEP   12
 
 SOLVING FOR HEAD 
                                                   Max.-Head-Change                         Max.-Flux-Residual
  Residual-Control   Outer-Iter.   Inner-Iter.     Column Row Layer    Maximum-Head-Change  Column Row Layer    Maximum-Flux-Residual          L2-NORM 
          0                 1           2             2    2     1       0.2203023571E-02       2    2    1         0.1152784494E+00      0.2768522595E+00
          0                 2           2             2    2     1      -0.2182313637E-03       2    2    1        -0.1152786340E-01      0.2721334834E-01
          0                 3           1             2    2     1       0.1946065742E-04       2    2    1         0.1037508761E-02      0.2423778389E-02

    ------------------------------------------------
       NWT REQUIRED            3 OUTER ITERATIONS 
       AND A TOTAL OF          5 INNER ITERATIONS.
    ------------------------------------------------

 NO OUTPUT CONTROL FOR STRESS PERIOD   16   TIME STEP   13
 
 SOLVING FOR HEAD 
                                                   Max.-Head-Change                         Max.-Flux-Residual
  Residual-Control   Outer-Iter.   Inner-Iter.     Column Row Layer    Maximum-Head-Change  Column Row Layer    Maximum-Flux-Residual          L2-NORM 
          0                 1           2             2    2     1       0.2186144171E-02       2    2    1         0.1143891986E+00      0.2699234659E+00
          0                 2           2             2    2     1      -0.2165585070E-03       2    2    1        -0.1143893796E-01      0.2653496860E-01
          0                 3           1             2    2     1       0.1931146103E-04       2    2    1         0.1029505480E-02      0.2364941814E-02

    ------------------------------------------------
       NWT REQUIRED            3 OUTER ITERATIONS 
       AND A TOTAL OF          5 INNER ITERATIONS.
    ------------------------------------------------

 NO OUTPUT CONTROL FOR STRESS PERIOD   16   TIME STEP   14
 
 SOLVING FOR HEAD 
                                                   Max.-Head-Change                         Max.-Flux-Residual
  Residual-Control   Outer-Iter.   Inner-Iter.     Column Row Layer    Maximum-Head-Change  Column Row Layer    Maximum-Flux-Residual          L2-NORM 
          0                 1           2             2    2     1       0.2169605680E-02       2    2    1         0.1135179357E+00      0.2636020894E+00
          0                 2           2             2    2     1      -0.2149194307E-03       2    2    1        -0.1135181134E-01      0.2591643031E-01
          0                 3           1             2    2     1       0.1916527750E-04       2    2    1         0.1021664092E-02      0.2310085383E-02

    ------------------------------------------------
       NWT REQUIRED            3 OUTER ITERATIONS 
       AND A TOTAL OF          5 INNER ITERATIONS.
    ------------------------------------------------

 NO OUTPUT CONTROL FOR STRESS PERIOD   16   TIME STEP   15
 
 SOLVING FOR HEAD 
                                                   Max.-Head-Change                         Max.-Flux-Residual
  Residual-Control   Outer-Iter.   Inner-Iter.     Column Row Layer    Maximum-Head-Change  Column Row Layer    Maximum-Flux-Residual          L2-NORM 
          0                 1           2             2    2     1       0.2153229107E-02       2    2    1         0.1126552164E+00      0.2578247208E+00
          0                 2           2             2    2     1      -0.2132964017E-03       2    2    1        -0.1126553907E-01      0.2534941317E-01
          0                 3           1             2    2     1       0.1902052500E-04       2    2    1         0.1013899599E-02      0.2270437907E-02

    ------------------------------------------------
       NWT REQUIRED            3 OUTER ITERATIONS 
       AND A TOTAL OF          5 INNER ITERATIONS.
    ------------------------------------------------

 NO OUTPUT CONTROL FOR STRESS PERIOD   16   TIME STEP   16
 
 SOLVING FOR HEAD 
                                                   Max.-Head-Change                         Max.-Flux-Residual
  Residual-Control   Outer-Iter.   Inner-Iter.     Column Row Layer    Maximum-Head-Change  Column Row Layer    Maximum-Flux-Residual          L2-NORM 
          0                 1           2             2    2     1       0.2137098366E-02       2    2    1         0.1118054715E+00      0.2525237812E+00
          0                 2           2             2    2     1      -0.2116977376E-03       2    2    1        -0.1118056424E-01      0.2482865029E-01
          0                 3           1             2    2     1       0.1887794544E-04       2    2    1         0.1006251864E-02      0.2216744628E-02

    ------------------------------------------------
       NWT REQUIRED            3 OUTER ITERATIONS 
       AND A TOTAL OF          5 INNER ITERATIONS.
    ------------------------------------------------

 NO OUTPUT CONTROL FOR STRESS PERIOD   16   TIME STEP   17
 
 SOLVING FOR HEAD 
                                                   Max.-Head-Change                         Max.-Flux-Residual
  Residual-Control   Outer-Iter.   Inner-Iter.     Column Row Layer    Maximum-Head-Change  Column Row Layer    Maximum-Flux-Residual          L2-NORM 
          0                 1           2             2    2     1       0.2121209402E-02       2    2    1         0.1109684823E+00      0.2476639285E+00
          0                 2           2             2    2     1      -0.2101230313E-03       2    2    1        -0.1109686499E-01      0.2434938186E-01
          0                 3           1             2    2     1       0.1873750274E-04       2    2    1         0.9987189605E-03      0.2174292782E-02

    ------------------------------------------------
       NWT REQUIRED            3 OUTER ITERATIONS 
       AND A TOTAL OF          5 INNER ITERATIONS.
    ------------------------------------------------

 NO OUTPUT CONTROL FOR STRESS PERIOD   16   TIME STEP   18
 
 SOLVING FOR HEAD 
                                                   Max.-Head-Change                         Max.-Flux-Residual
  Residual-Control   Outer-Iter.   Inner-Iter.     Column Row Layer    Maximum-Head-Change  Column Row Layer    Maximum-Flux-Residual          L2-NORM 
          0                 1           2             2    2     1       0.2105558195E-02       2    2    1         0.1101440385E+00      0.2431850938E+00
          0                 2           2             2    2     1      -0.2085718863E-03       2    2    1        -0.1101442028E-01      0.2390748221E-01
          0                 3           1             2    2     1       0.1859916077E-04       2    2    1         0.9912989237E-03      0.2135704691E-02

    ------------------------------------------------
       NWT REQUIRED            3 OUTER ITERATIONS 
       AND A TOTAL OF          5 INNER ITERATIONS.
    ------------------------------------------------

 NO OUTPUT CONTROL FOR STRESS PERIOD   16   TIME STEP   19
 
 SOLVING FOR HEAD 
                                                   Max.-Head-Change                         Max.-Flux-Residual
  Residual-Control   Outer-Iter.   Inner-Iter.     Column Row Layer    Maximum-Head-Change  Column Row Layer    Maximum-Flux-Residual          L2-NORM 
          0                 1           2             2    2     1       0.2090053345E-02       2    2    1         0.1093273584E+00      0.2390577078E+00
          0                 2           2             2    2     1      -0.2070352499E-03       2    2    1        -0.1093275194E-01      0.2349928056E-01
          0                 3           1             2    2     1       0.1846211330E-04       2    2    1         0.9839487785E-03      0.2100036594E-02

    ------------------------------------------------
       NWT REQUIRED            3 OUTER ITERATIONS 
       AND A TOTAL OF          5 INNER ITERATIONS.
    ------------------------------------------------

 NO OUTPUT CONTROL FOR STRESS PERIOD   16   TIME STEP   20
 
 SOLVING FOR HEAD 
                                                   Max.-Head-Change                         Max.-Flux-Residual
  Residual-Control   Outer-Iter.   Inner-Iter.     Column Row Layer    Maximum-Head-Change  Column Row Layer    Maximum-Flux-Residual          L2-NORM 
          0                 1           2             2    2     1       0.2074867303E-02       2    2    1         0.1085274185E+00      0.2352390431E+00
          0                 2           2             2    2     1      -0.2055302038E-03       2    2    1        -0.1085275765E-01      0.2312006947E-01
          0                 3           1             2    2     1       0.1832788319E-04       2    2    1         0.9767493046E-03      0.2066976613E-02

    ------------------------------------------------
       NWT REQUIRED            3 OUTER ITERATIONS 
       AND A TOTAL OF          5 INNER ITERATIONS.
    ------------------------------------------------

 NO OUTPUT CONTROL FOR STRESS PERIOD   16   TIME STEP   21
 
 SOLVING FOR HEAD 
                                                   Max.-Head-Change                         Max.-Flux-Residual
  Residual-Control   Outer-Iter.   Inner-Iter.     Column Row Layer    Maximum-Head-Change  Column Row Layer    Maximum-Flux-Residual          L2-NORM 
          0                 1           2             2    2     1       0.2059819937E-02       2    2    1         0.1077348747E+00      0.2316943359E+00
          0                 2           2             2    2     1      -0.2040389023E-03       2    2    1        -0.1077350301E-01      0.2276815564E-01
          0                 3           1             2    2     1       0.1819487880E-04       2    2    1         0.9696163948E-03      0.2035841974E-02

    ------------------------------------------------
       NWT REQUIRED            3 OUTER ITERATIONS 
       AND A TOTAL OF          5 INNER ITERATIONS.
    ------------------------------------------------

 NO OUTPUT CONTROL FOR STRESS PERIOD   16   TIME STEP   22
 
 SOLVING FOR HEAD 
                                                   Max.-Head-Change                         Max.-Flux-Residual
  Residual-Control   Outer-Iter.   Inner-Iter.     Column Row Layer    Maximum-Head-Change  Column Row Layer    Maximum-Flux-Residual          L2-NORM 
          0                 1           2             2    2     1       0.2045083794E-02       2    2    1         0.1069586731E+00      0.2283969924E+00
          0                 2           2             2    2     1      -0.2025784414E-03       2    2    1        -0.1069588252E-01      0.2244001444E-01
          0                 3           1             2    2     1       0.1806462498E-04       2    2    1         0.9626305613E-03      0.2007530461E-02

    ------------------------------------------------
       NWT REQUIRED            3 OUTER ITERATIONS 
       AND A TOTAL OF          5 INNER ITERATIONS.
    ------------------------------------------------

 NO OUTPUT CONTROL FOR STRESS PERIOD   16   TIME STEP   23
 
 SOLVING FOR HEAD 
                                                   Max.-Head-Change                         Max.-Flux-Residual
  Residual-Control   Outer-Iter.   Inner-Iter.     Column Row Layer    Maximum-Head-Change  Column Row Layer    Maximum-Flux-Residual          L2-NORM 
          0                 1           2             2    2     1       0.2030478858E-02       2    2    1         0.1061894736E+00      0.2253269292E+00
          0                 2           2             2    2     1      -0.2011309860E-03       2    2    1        -0.1061896230E-01      0.2213295408E-01
          0                 3           1             2    2     1       0.1793553057E-04       2    2    1         0.9557077134E-03      0.1980172184E-02

    ------------------------------------------------
       NWT REQUIRED            3 OUTER ITERATIONS 
       AND A TOTAL OF          5 INNER ITERATIONS.
    ------------------------------------------------

 NO OUTPUT CONTROL FOR STRESS PERIOD   16   TIME STEP   24
 
 SOLVING FOR HEAD 
                                                   Max.-Head-Change                         Max.-Flux-Residual
  Residual-Control   Outer-Iter.   Inner-Iter.     Column Row Layer    Maximum-Head-Change  Column Row Layer    Maximum-Flux-Residual          L2-NORM 
          0                 1           2             4   13     1      -0.5499523809E-02       4   13    1        -0.3154137703E+00      0.5662782910E+00
          0                 2           2             7   13     1      -0.1937836066E-02       7   13    1        -0.1060816717E+00      0.1212865279E+00
          0                 3           2             7   13     1       0.1727396434E-03       7   13    1         0.9542880251E-02      0.1087371256E-01
          0                 4           1             7   13     1      -0.1370424152E-04       7   13    1        -0.7640175265E-03      0.8675475334E-03

    ------------------------------------------------
       NWT REQUIRED            4 OUTER ITERATIONS 
       AND A TOTAL OF          7 INNER ITERATIONS.
    ------------------------------------------------

 NO OUTPUT CONTROL FOR STRESS PERIOD   16   TIME STEP   25
 
 SOLVING FOR HEAD 
                                                   Max.-Head-Change                         Max.-Flux-Residual
  Residual-Control   Outer-Iter.   Inner-Iter.     Column Row Layer    Maximum-Head-Change  Column Row Layer    Maximum-Flux-Residual          L2-NORM 
          0                 1           2             4   13     1      -0.5318271802E-02       4   13    1        -0.3048110521E+00      0.5628019312E+00
          0                 2           2             4   13     1       0.5220676149E-03       4   13    1         0.3020033839E-01      0.5486622761E-01
          0                 3           1             4   13     1      -0.4609073076E-04       4   13    1        -0.2691084294E-02      0.4814098883E-02

    ------------------------------------------------
       NWT REQUIRED            3 OUTER ITERATIONS 
       AND A TOTAL OF          5 INNER ITERATIONS.
    ------------------------------------------------

 NO OUTPUT CONTROL FOR STRESS PERIOD   16   TIME STEP   26
 
 SOLVING FOR HEAD 
                                                   Max.-Head-Change                         Max.-Flux-Residual
  Residual-Control   Outer-Iter.   Inner-Iter.     Column Row Layer    Maximum-Head-Change  Column Row Layer    Maximum-Flux-Residual          L2-NORM 
          0                 1           2             4   13     1      -0.4828354887E-02       4   13    1        -0.2766065119E+00      0.5248775425E+00
          0                 2           2             4   13     1       0.4739331948E-03       4   13    1         0.2740338918E-01      0.5116663071E-01
          0                 3           1             4   13     1      -0.4182510209E-04       4   13    1        -0.2440905085E-02      0.4489835721E-02

    ------------------------------------------------
       NWT REQUIRED            3 OUTER ITERATIONS 
       AND A TOTAL OF          5 INNER ITERATIONS.
    ------------------------------------------------

 NO OUTPUT CONTROL FOR STRESS PERIOD   16   TIME STEP   27
 
 SOLVING FOR HEAD 
                                                   Max.-Head-Change                         Max.-Flux-Residual
  Residual-Control   Outer-Iter.   Inner-Iter.     Column Row Layer    Maximum-Head-Change  Column Row Layer    Maximum-Flux-Residual          L2-NORM 
          0                 1           2             2   13     1      -0.4443864307E-02       4   13    1        -0.2511290157E+00      0.4904754756E+00
          0                 2           2             4   13     1       0.4304209327E-03       4   13    1         0.2487579327E-01      0.4781068523E-01
          0                 3           1             4   13     1      -0.3798701622E-04       4   13    1        -0.2215870661E-02      0.4197444393E-02

    ------------------------------------------------
       NWT REQUIRED            3 OUTER ITERATIONS 
       AND A TOTAL OF          5 INNER ITERATIONS.
    ------------------------------------------------

 NO OUTPUT CONTROL FOR STRESS PERIOD   16   TIME STEP   28
 
 SOLVING FOR HEAD 
                                                   Max.-Head-Change                         Max.-Flux-Residual
  Residual-Control   Outer-Iter.   Inner-Iter.     Column Row Layer    Maximum-Head-Change  Column Row Layer    Maximum-Flux-Residual          L2-NORM 
          0                 1           2             2    2     1       0.4028998603E-02       2    2    1         0.2107268259E+00      0.3809225265E+00
          0                 2           2             2    2     1      -0.3991652259E-03       2    2    1        -0.2107273644E-01      0.3785403051E-01
          0                 3           1             2    2     1       0.3559669014E-04       2    2    1         0.1896547206E-02      0.3400301451E-02

    ------------------------------------------------
       NWT REQUIRED            3 OUTER ITERATIONS 
       AND A TOTAL OF          5 INNER ITERATIONS.
    ------------------------------------------------

 NO OUTPUT CONTROL FOR STRESS PERIOD   16   TIME STEP   29
 
 SOLVING FOR HEAD 
                                                   Max.-Head-Change                         Max.-Flux-Residual
  Residual-Control   Outer-Iter.   Inner-Iter.     Column Row Layer    Maximum-Head-Change  Column Row Layer    Maximum-Flux-Residual          L2-NORM 
          0                 1           2             4   13     1       0.2434080657E-01       4   13    1         0.1406307759E+01      0.2607730168E+01
          0                 2           2             7   13     1      -0.5731657202E-02       7   13    1        -0.3121591227E+00      0.3937369820E+00
          0                 3           2             7   13     1       0.5110506189E-03       7   13    1         0.2808821461E-01      0.3495379290E-01
          0                 4           1             7   13     1      -0.4055422614E-04       7   13    1        -0.2249352747E-02      0.2759724542E-02

    ------------------------------------------------
       NWT REQUIRED            4 OUTER ITERATIONS 
       AND A TOTAL OF          7 INNER ITERATIONS.
    ------------------------------------------------

 NO OUTPUT CONTROL FOR STRESS PERIOD   16   TIME STEP   30



 STREAM LISTING     PERIOD     16   STEP       30

 LAYER ROW COL. STREAM  RCH.  FLOW INTO     FLOW TO   FLOW OUT OF   OVRLND.     DIRECT     STREAM       STREAM     STREAM     STREAM   STREAMBED  STREAMBED
                SEG.NO.  NO.  STRM. RCH.    AQUIFER    STRM. RCH.    RUNOFF     PRECIP       ET          HEAD       DEPTH      WIDTH   CONDCTNC.   GRADIENT

   1    1    1     1     1    9.8000E+01  4.7086E-01   9.7529E+01  0.000E+00  0.000E+00  0.000E+00  1.09484E+03  1.792E+00  2.184E+01  9.826E-02  1.597E+00
   1    2    2     1     2    9.7529E+01  7.3062E-01   9.6799E+01  0.000E+00  0.000E+00  0.000E+00  1.08985E+03  1.790E+00  2.179E+01  1.525E-01  1.597E+00
   1    3    3     1     3    9.6799E+01  6.2447E-01   9.6174E+01  0.000E+00  0.000E+00  0.000E+00  1.08421E+03  1.787E+00  2.174E+01  1.304E-01  1.596E+00
   1    3    4     1     4    9.6174E+01  5.7618E-01   9.5598E+01  0.000E+00  0.000E+00  0.000E+00  1.07919E+03  1.785E+00  2.170E+01  1.204E-01  1.595E+00
   1    4    5     2     1    9.3598E+01  4.4167E-01   9.3156E+01  0.000E+00  0.000E+00  0.000E+00  1.07460E+03  2.662E+00  1.200E+01  7.800E-02  1.887E+00
   1    5    6     2     2    9.3156E+01  3.3935E-01   9.2817E+01  0.000E+00  0.000E+00  0.000E+00  1.06917E+03  2.656E+00  1.200E+01  6.000E-02  1.885E+00
   1    6    6     2     3    9.2817E+01  3.3900E-01   9.2478E+01  0.000E+00  0.000E+00  0.000E+00  1.06444E+03  2.650E+00  1.200E+01  6.000E-02  1.883E+00
   1    7    6     2     4    9.2478E+01  3.3865E-01   9.2139E+01  0.000E+00  0.000E+00  0.000E+00  1.05972E+03  2.644E+00  1.200E+01  6.000E-02  1.881E+00
   1    8    6     2     5    9.2139E+01  3.3830E-01   9.1801E+01  0.000E+00  0.000E+00  0.000E+00  1.05500E+03  2.638E+00  1.200E+01  6.000E-02  1.879E+00
   1    3    5     3     1    2.0000E+00  2.8252E-01   1.7175E+00  0.000E+00  0.000E+00  0.000E+00  1.07555E+03  1.909E+00  9.636E+00  7.227E-02  1.955E+00
   1    3    6     3     2    1.7175E+00  2.4905E-01   1.4684E+00  0.000E+00  0.000E+00  0.000E+00  1.07264E+03  1.727E+00  8.909E+00  6.682E-02  1.864E+00
   1    3    7     3     3    1.4684E+00  1.9718E-01   1.2712E+00  0.000E+00  0.000E+00  0.000E+00  1.06987E+03  1.555E+00  8.218E+00  5.547E-02  1.777E+00
   1    4    8     3     4    1.2712E+00  2.2567E-01   1.0456E+00  0.000E+00  0.000E+00  0.000E+00  1.06682E+03  1.364E+00  7.455E+00  6.709E-02  1.682E+00
   1    5    8     3     5    1.0456E+00  1.5790E-01   8.8768E-01  0.000E+00  0.000E+00  0.000E+00  1.06362E+03  1.164E+00  6.655E+00  4.991E-02  1.582E+00
   1    6    8     3     6    8.8768E-01  5.5980E-02   8.3170E-01  0.000E+00  0.000E+00  0.000E+00  1.06158E+03  1.036E+00  6.145E+00  1.844E-02  1.518E+00
   1    5   10     4     1    1.0000E+01  9.0919E-02   9.9091E+00  0.000E+00  0.000E+00  0.000E+00  1.07836E+03  6.368E-01  1.000E+01  2.500E-02  1.212E+00
   1    5    9     4     2    9.9091E+00  1.8158E-01   9.7275E+00  0.000E+00  0.000E+00  0.000E+00  1.07154E+03  6.315E-01  1.000E+01  5.000E-02  1.211E+00
   1    6    8     4     3    9.7275E+00  1.2689E-01   9.6006E+00  0.000E+00  0.000E+00  0.000E+00  1.06381E+03  6.256E-01  1.000E+01  3.500E-02  1.209E+00
   1    6    8     5     1    1.0432E+01  2.2686E-01   1.0205E+01  0.000E+00  0.000E+00  0.000E+00  1.05868E+03  6.790E-01  1.542E+01  6.166E-02  1.226E+00
   1    7    7     5     2    1.0205E+01  2.7894E-01   9.9265E+00  0.000E+00  0.000E+00  0.000E+00  1.05417E+03  6.732E-01  1.519E+01  7.594E-02  1.224E+00
   1    8    7     5     3    9.9265E+00  1.9221E-01   9.7343E+00  0.000E+00  0.000E+00  0.000E+00  1.04992E+03  6.676E-01  1.497E+01  5.241E-02  1.223E+00
   1    8    6     5     4    9.7343E+00  1.3577E-01   9.5985E+00  0.000E+00  0.000E+00  0.000E+00  1.04691E+03  6.637E-01  1.482E+01  3.706E-02  1.221E+00
   1    9    6     6     1    8.1399E+01  3.2858E-01   8.1071E+01  0.000E+00  0.000E+00  0.000E+00  1.04520E+03  2.476E+00  1.200E+01  6.000E-02  1.825E+00
   1   10    7     6     2    8.1071E+01  3.2822E-01   8.0743E+01  0.000E+00  0.000E+00  0.000E+00  1.04065E+03  2.470E+00  1.200E+01  6.000E-02  1.823E+00
   1   11    7     6     3    8.0743E+01  3.2786E-01   8.0415E+01  0.000E+00  0.000E+00  0.000E+00  1.03610E+03  2.464E+00  1.200E+01  6.000E-02  1.821E+00
   1   12    7     6     4    8.0415E+01  3.2750E-01   8.0087E+01  0.000E+00  0.000E+00  0.000E+00  1.03155E+03  2.458E+00  1.200E+01  6.000E-02  1.819E+00
   1   13    7     6     5    8.0087E+01  3.0893E-02   8.0056E+01  0.000E+00  0.000E+00  0.000E+00  1.02836E+03  2.455E+00  1.200E+01  2.400E-02  4.291E-01
   1   14    9     7     1    1.5000E+02  1.3395E+00   1.4866E+02  0.000E+00  0.000E+00  0.000E+00  1.03987E+03  2.288E+00  5.529E+01  5.593E-01  7.983E-01
   1   13    8     7     2    1.4866E+02  1.8369E+00   1.4682E+02  0.000E+00  0.000E+00  0.000E+00  1.03478E+03  2.279E+00  5.526E+01  6.148E-01  9.960E-01
   1   13    7     7     3    1.4682E+02  1.4592E+00   1.4536E+02  0.000E+00  0.000E+00  0.000E+00  1.02969E+03  2.270E+00  5.522E+01  5.585E-01  8.710E-01
   1   13    6     8     1    2.2542E+02  1.1591E+00   2.2426E+02  0.000E+00  0.000E+00  0.000E+00  1.02515E+03  3.279E+00  4.754E+01  4.844E-01  7.976E-01
   1   13    5     8     2    2.2426E+02  3.2269E-01   2.2394E+02  0.000E+00  0.000E+00  0.000E+00  1.01890E+03  3.274E+00  4.748E+01  4.838E-01  2.223E-01
   1   13    4     8     3    2.2394E+02 -1.2852E+00   2.2522E+02  0.000E+00  0.000E+00  0.000E+00  1.01265E+03  3.277E+00  4.752E+01  4.842E+00 -8.847E-02
   1   13    3     8     4    2.2522E+02 -2.5543E+00   2.2778E+02  0.000E+00  0.000E+00  0.000E+00  1.00641E+03  3.288E+00  4.767E+01  4.858E+00 -1.753E-01
   1   13    2     8     5    2.2778E+02 -1.3394E+00   2.2912E+02  0.000E+00  0.000E+00  0.000E+00  1.00017E+03  3.298E+00  4.782E+01  4.873E+00 -9.161E-02
   1   13    1     8     6    2.2912E+02 -1.2540E+00   2.3037E+02  0.000E+00  0.000E+00  0.000E+00  9.95180E+02  3.305E+00  4.793E+01  2.930E+00 -1.426E-01
   1    6    8     9     1    2.0000E+01  0.0000E+00   2.0000E+01  0.000E+00  0.000E+00  0.000E+00  1.07932E+03  8.168E-01  4.000E+00  0.000E+00  1.272E+00





UNSATURATED ZONE PACKAGE VOLUMETRIC BUDGET FOR  TIME STEP    30 STRESS PERIOD   16
  ------------------------------------------------------------------------------



     CUMULATIVE VOLUMES      L**3       RATES FOR THIS TIME STEP      L**3/T
     ------------------                 ------------------------

           IN:                                      IN:
           ---                                      ---
        INFILTRATION =    56192156.8887          INFILTRATION =       0.0000E+00

          OUT:                                     OUT:
          ----                                     ----
              UZF ET =    42117801.3770                UZF ET =           0.1340
        UZF RECHARGE =     2412358.7130          UZF RECHARGE =           0.0048

            IN - OUT =    11661996.7987              IN - OUT =          -0.1389

          STORAGE:                                 STORAGE:
          --------                                 --------
      STORAGE CHANGE =    11679261.3418        STORAGE CHANGE =          -0.1389

 PERCENT DISCREPANCY IS DIFFERENCE BETWEEN IN-OUT MINUS CHANGE IN STORAGE
 DIVIDED BY THE AVERAGE OF IN AND OUT TIMES 100

 PERCENT DISCREPANCY =          -0.01     PERCENT DISCREPANCY =          -0.01






1
  VOLUMETRIC BUDGET FOR ENTIRE MODEL AT END OF TIME STEP   30, STRESS PERIOD  16
  ------------------------------------------------------------------------------

     CUMULATIVE VOLUMES      L**3       RATES FOR THIS TIME STEP      L**3/T
     ------------------                 ------------------------

           IN:                                      IN:
           ---                                      ---
    AWU WELLS            =    11225853.0000      AWU WELLS            =           0.0000
    DIVERSION SEGMENTS   =    44893080.0000      DIVERSION SEGMENTS   =           0.0000
    GW IRRIGATION        =           0.0000      GW IRRIGATION        =           0.0000
    SW IRRIGATION        =           0.0000      SW IRRIGATION        =           0.0000
    EFFICIENCY FACTOR GW =           0.0000      EFFICIENCY FACTOR GW =           0.0000
    EFFICIENCY FACTOR SW =           0.0000      EFFICIENCY FACTOR SW =           0.0000

                TOTAL IN =    56118932.0000                  TOTAL IN =           0.0000

          OUT:                                     OUT:
          ----                                     ----
    AWU WELLS            =           0.0000      AWU WELLS            =           0.0000
    DIVERSION SEGMENTS   =           0.0000      DIVERSION SEGMENTS   =           0.0000
    GW IRRIGATION        =    11225853.0000      GW IRRIGATION        =           0.0000
    SW IRRIGATION        =    44893080.0000      SW IRRIGATION        =           0.0000
    EFFICIENCY FACTOR GW =           0.0000      EFFICIENCY FACTOR GW =           0.0000
    EFFICIENCY FACTOR SW =           0.0000      EFFICIENCY FACTOR SW =           0.0000

               TOTAL OUT =    56118932.0000                 TOTAL OUT =           0.0000

                IN - OUT =           0.0000                  IN - OUT =           0.0000

     PERCENT DISCREPANCY =           0.00         PERCENT DISCREPANCY =           0.00



1
  VOLUMETRIC BUDGET FOR ENTIRE MODEL AT END OF TIME STEP   30, STRESS PERIOD  16
  ------------------------------------------------------------------------------

     CUMULATIVE VOLUMES      L**3       RATES FOR THIS TIME STEP      L**3/T
     ------------------                 ------------------------

           IN:                                      IN:
           ---                                      ---
             STORAGE     =    61498928.0000               STORAGE     =           0.2982
       CONSTANT HEAD     =           0.0000         CONSTANT HEAD     =           0.0000
     HEAD DEP BOUNDS     =    11294569.0000       HEAD DEP BOUNDS     =           0.2860
      STREAM LEAKAGE     =   460995520.0000        STREAM LEAKAGE     =          14.0610
        UZF RECHARGE     =     2412357.7500          UZF RECHARGE     =       4.8384E-03
               GW ET     =           0.0000                 GW ET     =           0.0000
     SURFACE LEAKAGE     =           0.0000       SURFACE LEAKAGE     =           0.0000
    AWU WELLS            =           0.0000      AWU WELLS            =           0.0000

                TOTAL IN =   536201376.0000                  TOTAL IN =          14.6501

          OUT:                                     OUT:
          ----                                     ----
             STORAGE     =    69807800.0000               STORAGE     =           7.8251
       CONSTANT HEAD     =           0.0000         CONSTANT HEAD     =           0.0000
     HEAD DEP BOUNDS     =    11349249.0000       HEAD DEP BOUNDS     =           0.2891
      STREAM LEAKAGE     =   389291520.0000        STREAM LEAKAGE     =           6.4329
        UZF RECHARGE     =           0.0000          UZF RECHARGE     =           0.0000
               GW ET     =    54531804.0000                 GW ET     =           0.1024
     SURFACE LEAKAGE     =           0.0000       SURFACE LEAKAGE     =           0.0000
    AWU WELLS            =    11225853.0000      AWU WELLS            =           0.0000

               TOTAL OUT =   536206240.0000                 TOTAL OUT =          14.6496

                IN - OUT =       -4864.0000                  IN - OUT =       5.0831E-04

     PERCENT DISCREPANCY =          -0.00         PERCENT DISCREPANCY =           0.00






         TIME SUMMARY AT END OF TIME STEP   30 IN STRESS PERIOD   16
                    SECONDS     MINUTES      HOURS       DAYS        YEARS
                    -----------------------------------------------------------
   TIME STEP LENGTH  87600.      1460.0      24.333      1.0139     2.77588E-03
 STRESS PERIOD TIME 2.62800E+06  43800.      730.00      30.417     8.32763E-02
         TOTAL TIME 3.95064E+07 6.58440E+05  10974.      457.25      1.2519    
1
1
                            STRESS PERIOD NO.   17, LENGTH =   2628000.    
                            -----------------------------------------------

                              NUMBER OF TIME STEPS =    30

                               MULTIPLIER FOR DELT =     1.000

                            INITIAL TIME STEP SIZE =   87600.00    

 REUSING NON-PARAMETER GHB CELLS FROM LAST STRESS PERIOD

      2 GHB CELLS

 REUSING STREAM SEGMENT DATA FROM LAST STRESS PERIOD



            AREAL INFILTRATION RATE
 READING ON UNIT   19 WITH FORMAT: (10F4.0)            

            1           2           3           4           5           6           7           8           9          10
 ........................................................................................................................
   1    0.000       0.000       0.000       0.000       0.000       0.000       0.000       0.000       0.000       0.000    
   2    0.000       0.000       0.000       0.000       0.000       0.000       0.000       0.000       0.000       0.000    
   3    0.000       0.000       0.000       0.000       0.000       0.000       0.000       0.000       0.000       0.000    
   4    0.000       0.000       0.000       0.000       0.000       0.000       0.000       0.000       0.000       0.000    
   5    0.000       0.000       0.000       0.000       0.000       0.000       0.000       0.000       0.000       0.000    
   6    0.000       0.000       0.000       0.000       0.000       0.000       0.000       0.000       0.000       0.000    
   7    0.000       0.000       0.000       0.000       0.000       0.000       0.000       0.000       0.000       0.000    
   8    0.000       0.000       0.000       0.000       0.000       0.000       0.000       0.000       0.000       0.000    
   9    0.000       0.000       0.000       0.000       0.000       0.000       0.000       0.000       0.000       0.000    
  10    0.000       0.000       0.000       0.000       0.000       0.000       0.000       0.000       0.000       0.000    
  11    0.000       0.000       0.000       0.000       0.000       0.000       0.000       0.000       0.000       0.000    
  12    0.000       0.000       0.000       0.000       0.000       0.000       0.000       0.000       0.000       0.000    
  13    0.000       0.000       0.000       0.000       0.000       0.000       0.000       0.000       0.000       0.000    
  14    0.000       0.000       0.000       0.000       0.000       0.000       0.000       0.000       0.000       0.000    
  15    0.000       0.000       0.000       0.000       0.000       0.000       0.000       0.000       0.000       0.000    

                  ET RATE =  5.000000E-09

 USING ET EXTINCTION DEPTH FROM PREVIOUS STRESS PERIOD. CURRENT PERIOD IS:      17

 USING EXTINCTION WATER CONTENT FROM PREVIOUS STRESS PERIOD. CURRENT PERIOD IS:      17

 PROCESSING AWU STRESS PERIOD DATA

 READING AWU STRESS PERIOD DATA

 READING IRRIGATION STREAM

 READING IRRIGATION WELL

 READING SUPPLEMENTAL WEL

 END PROCESSING AWU STRESS PERIOD DATA OPTIONS
 
 SOLVING FOR HEAD 
                                                   Max.-Head-Change                         Max.-Flux-Residual
  Residual-Control   Outer-Iter.   Inner-Iter.     Column Row Layer    Maximum-Head-Change  Column Row Layer    Maximum-Flux-Residual          L2-NORM 
          0                 1           2             2   13     1       0.2092343784E-01       2   13    1         0.1187277082E+01      0.2263548012E+01
          0                 2           2             4   13     1       0.6154775612E-02       4   13    1         0.3565596644E+00      0.6286472141E+00
          0                 3           2             4   13     1      -0.6256685751E-03       4   13    1        -0.3658462351E-01      0.6298231993E-01
          0                 4           1             4   13     1       0.1935114987E-04       4   13    1         0.1142670175E-02      0.1853987706E-02

    ------------------------------------------------
       NWT REQUIRED            4 OUTER ITERATIONS 
       AND A TOTAL OF          7 INNER ITERATIONS.
    ------------------------------------------------

 NO OUTPUT CONTROL FOR STRESS PERIOD   17   TIME STEP    1
 
 SOLVING FOR HEAD 
                                                   Max.-Head-Change                         Max.-Flux-Residual
  Residual-Control   Outer-Iter.   Inner-Iter.     Column Row Layer    Maximum-Head-Change  Column Row Layer    Maximum-Flux-Residual          L2-NORM 
          0                 1           2             2   13     1       0.2594605740E-01       2   13    1         0.1475068402E+01      0.2761085982E+01
          0                 2           2             4   13     1      -0.1950184083E-02       4   13    1        -0.1139664921E+00      0.2179714682E+00
          0                 3           2             4   13     1       0.1716932111E-03       4   13    1         0.1012725488E-01      0.1900860203E-01
          0                 4           1             4   13     1      -0.1342912112E-04       4   13    1        -0.7995148835E-03      0.1470357246E-02

    ------------------------------------------------
       NWT REQUIRED            4 OUTER ITERATIONS 
       AND A TOTAL OF          7 INNER ITERATIONS.
    ------------------------------------------------

 NO OUTPUT CONTROL FOR STRESS PERIOD   17   TIME STEP    2
 
 SOLVING FOR HEAD 
                                                   Max.-Head-Change                         Max.-Flux-Residual
  Residual-Control   Outer-Iter.   Inner-Iter.     Column Row Layer    Maximum-Head-Change  Column Row Layer    Maximum-Flux-Residual          L2-NORM 
          0                 1           2             2   13     1       0.2431012246E-01       2   13    1         0.1382132294E+01      0.2601317966E+01
          0                 2           2             2   13     1      -0.2291098148E-02       4   13    1        -0.1326820672E+00      0.2524119819E+00
          0                 3           2             4   13     1       0.1999950392E-03       4   13    1         0.1179057986E-01      0.2198379308E-01
          0                 4           1             4   13     1      -0.1565304501E-04       4   13    1        -0.9314384652E-03      0.1698940265E-02

    ------------------------------------------------
       NWT REQUIRED            4 OUTER ITERATIONS 
       AND A TOTAL OF          7 INNER ITERATIONS.
    ------------------------------------------------

 NO OUTPUT CONTROL FOR STRESS PERIOD   17   TIME STEP    3
 
 SOLVING FOR HEAD 
                                                   Max.-Head-Change                         Max.-Flux-Residual
  Residual-Control   Outer-Iter.   Inner-Iter.     Column Row Layer    Maximum-Head-Change  Column Row Layer    Maximum-Flux-Residual          L2-NORM 
          0                 1           2             2   13     1       0.2230971104E-01       2   13    1         0.1268268439E+01      0.2408458179E+01
          0                 2           2             2   13     1      -0.2103998957E-02       2   13    1        -0.1206981242E+00      0.2338675476E+00
          0                 3           2             4   13     1       0.1799036933E-03       4   13    1         0.1059899536E-01      0.2038610665E-01
          0                 4           1             4   13     1      -0.1408647112E-04       4   13    1        -0.8376587593E-03      0.1577376656E-02

    ------------------------------------------------
       NWT REQUIRED            4 OUTER ITERATIONS 
       AND A TOTAL OF          7 INNER ITERATIONS.
    ------------------------------------------------

 NO OUTPUT CONTROL FOR STRESS PERIOD   17   TIME STEP    4
 
 SOLVING FOR HEAD 
                                                   Max.-Head-Change                         Max.-Flux-Residual
  Residual-Control   Outer-Iter.   Inner-Iter.     Column Row Layer    Maximum-Head-Change  Column Row Layer    Maximum-Flux-Residual          L2-NORM 
          0                 1           2             2   13     1       0.2047500682E-01       2   13    1         0.1163838688E+01      0.2235170096E+01
          0                 2           2             2   13     1      -0.1932235075E-02       2   13    1        -0.1108314593E+00      0.2172102967E+00
          0                 3           2             2   13     1       0.1630560262E-03       4   13    1         0.9533324934E-02      0.1895072997E-01
          0                 4           1             4   13     1      -0.1267308976E-04       4   13    1        -0.7530669072E-03      0.1467748468E-02

    ------------------------------------------------
       NWT REQUIRED            4 OUTER ITERATIONS 
       AND A TOTAL OF          7 INNER ITERATIONS.
    ------------------------------------------------

 NO OUTPUT CONTROL FOR STRESS PERIOD   17   TIME STEP    5
 
 SOLVING FOR HEAD 
                                                   Max.-Head-Change                         Max.-Flux-Residual
  Residual-Control   Outer-Iter.   Inner-Iter.     Column Row Layer    Maximum-Head-Change  Column Row Layer    Maximum-Flux-Residual          L2-NORM 
          0                 1           2             2   13     1       0.1879231707E-01       2   13    1         0.1068063849E+01      0.2079560205E+01
          0                 2           2             2   13     1      -0.1774501416E-02       2   13    1        -0.1017715228E+00      0.2022333532E+00
          0                 3           2             2   13     1       0.1498929791E-03       2   13    1         0.8674855561E-02      0.1763845534E-01
          0                 4           1             2   13     1      -0.1208992520E-04       2   13    1        -0.7066158232E-03      0.1394118784E-02

    ------------------------------------------------
       NWT REQUIRED            4 OUTER ITERATIONS 
       AND A TOTAL OF          7 INNER ITERATIONS.
    ------------------------------------------------

 NO OUTPUT CONTROL FOR STRESS PERIOD   17   TIME STEP    6
 
 SOLVING FOR HEAD 
                                                   Max.-Head-Change                         Max.-Flux-Residual
  Residual-Control   Outer-Iter.   Inner-Iter.     Column Row Layer    Maximum-Head-Change  Column Row Layer    Maximum-Flux-Residual          L2-NORM 
          0                 1           2             2   13     1       0.1724935304E-01       2   13    1         0.9802448665E+00      0.1939911556E+01
          0                 2           2             2   13     1      -0.1629690194E-02       2   13    1        -0.9345325357E-01      0.1888510575E+00
          0                 3           2             2   13     1       0.1377227439E-03       2   13    1         0.7968906671E-02      0.1651431541E-01
          0                 4           1             4   13     1      -0.1036397518E-04       4   13    1        -0.6149707606E-03      0.1283839131E-02

    ------------------------------------------------
       NWT REQUIRED            4 OUTER ITERATIONS 
       AND A TOTAL OF          7 INNER ITERATIONS.
    ------------------------------------------------

 NO OUTPUT CONTROL FOR STRESS PERIOD   17   TIME STEP    7
 
 SOLVING FOR HEAD 
                                                   Max.-Head-Change                         Max.-Flux-Residual
  Residual-Control   Outer-Iter.   Inner-Iter.     Column Row Layer    Maximum-Head-Change  Column Row Layer    Maximum-Flux-Residual          L2-NORM 
          0                 1           2             2   13     1       0.1520447727E-01       2   13    1         0.8637477759E+00      0.1756368358E+01
          0                 2           2             2    2     1      -0.8625948563E-03       2   13    1        -0.4842787464E-01      0.1207901716E+00
          0                 3           1             2    2     1       0.7692616000E-04       2   13    1         0.4144099504E-02      0.1067483653E-01

    ------------------------------------------------
       NWT REQUIRED            3 OUTER ITERATIONS 
       AND A TOTAL OF          5 INNER ITERATIONS.
    ------------------------------------------------

 NO OUTPUT CONTROL FOR STRESS PERIOD   17   TIME STEP    8
 
 SOLVING FOR HEAD 
                                                   Max.-Head-Change                         Max.-Flux-Residual
  Residual-Control   Outer-Iter.   Inner-Iter.     Column Row Layer    Maximum-Head-Change  Column Row Layer    Maximum-Flux-Residual          L2-NORM 
          0                 1           2             2    2     1       0.8645285872E-02       2    2    1         0.4520426620E+00      0.1088403401E+01
          0                 2           2             4   13     1       0.7386092019E-02       4   13    1         0.4283170697E+00      0.7324105528E+00
          0                 3           2             4   13     1      -0.7437091254E-03       4   13    1        -0.4352807422E-01      0.7283081409E-01
          0                 4           1             4   13     1       0.3375837763E-04       4   13    1         0.1996527182E-02      0.3086472123E-02

    ------------------------------------------------
       NWT REQUIRED            4 OUTER ITERATIONS 
       AND A TOTAL OF          7 INNER ITERATIONS.
    ------------------------------------------------

 NO OUTPUT CONTROL FOR STRESS PERIOD   17   TIME STEP    9
 
 SOLVING FOR HEAD 
                                                   Max.-Head-Change                         Max.-Flux-Residual
  Residual-Control   Outer-Iter.   Inner-Iter.     Column Row Layer    Maximum-Head-Change  Column Row Layer    Maximum-Flux-Residual          L2-NORM 
          0                 1           2             2    2     1       0.8585502237E-02       2    2    1         0.4488949183E+00      0.1021817678E+01
          0                 2           2             4   13     1       0.7475619639E-02       4   13    1         0.4335233818E+00      0.7407854861E+00
          0                 3           2             4   13     1      -0.7521089067E-03       4   13    1        -0.4402114519E-01      0.7360686444E-01
          0                 4           1             4   13     1       0.3550152397E-04       4   13    1         0.2099538608E-02      0.3255436353E-02

    ------------------------------------------------
       NWT REQUIRED            4 OUTER ITERATIONS 
       AND A TOTAL OF          7 INNER ITERATIONS.
    ------------------------------------------------

 NO OUTPUT CONTROL FOR STRESS PERIOD   17   TIME STEP   10
 
 SOLVING FOR HEAD 
                                                   Max.-Head-Change                         Max.-Flux-Residual
  Residual-Control   Outer-Iter.   Inner-Iter.     Column Row Layer    Maximum-Head-Change  Column Row Layer    Maximum-Flux-Residual          L2-NORM 
          0                 1           2             2    2     1       0.8526585391E-02       2    2    1         0.4457928777E+00      0.9681871394E+00
          0                 2           2             4   13     1       0.7555187923E-02       4   13    1         0.4381483383E+00      0.7481304499E+00
          0                 3           2             4   13     1      -0.7596648346E-03       4   13    1        -0.4446443942E-01      0.7427279925E-01
          0                 4           1             4   13     1       0.3670274716E-04       4   13    1         0.2170561363E-02      0.3362918244E-02

    ------------------------------------------------
       NWT REQUIRED            4 OUTER ITERATIONS 
       AND A TOTAL OF          7 INNER ITERATIONS.
    ------------------------------------------------

 NO OUTPUT CONTROL FOR STRESS PERIOD   17   TIME STEP   11
 
 SOLVING FOR HEAD 
                                                   Max.-Head-Change                         Max.-Flux-Residual
  Residual-Control   Outer-Iter.   Inner-Iter.     Column Row Layer    Maximum-Head-Change  Column Row Layer    Maximum-Flux-Residual          L2-NORM 
          0                 1           2             2    2     1       0.8468521933E-02       2    2    1         0.4427358216E+00      0.9260803357E+00
          0                 2           2             4   13     1       0.7626134937E-02       4   13    1         0.4422701803E+00      0.7547186460E+00
          0                 3           2             4   13     1      -0.7665994981E-03       4   13    1        -0.4487105746E-01      0.7494148836E-01
          0                 4           1             4   13     1       0.3761841634E-04       4   13    1         0.2224700198E-02      0.3450261587E-02

    ------------------------------------------------
       NWT REQUIRED            4 OUTER ITERATIONS 
       AND A TOTAL OF          7 INNER ITERATIONS.
    ------------------------------------------------

 NO OUTPUT CONTROL FOR STRESS PERIOD   17   TIME STEP   12
 
 SOLVING FOR HEAD 
                                                   Max.-Head-Change                         Max.-Flux-Residual
  Residual-Control   Outer-Iter.   Inner-Iter.     Column Row Layer    Maximum-Head-Change  Column Row Layer    Maximum-Flux-Residual          L2-NORM 
          0                 1           2             2    2     1       0.8411211190E-02       2    2    1         0.4397184850E+00      0.8940085008E+00
          0                 2           2             4   13     1       0.7689533046E-02       4   13    1         0.4459515708E+00      0.7610267242E+00
          0                 3           2             2   13     1      -0.6932179319E-03       2   13    1        -0.3984952447E-01      0.6008544207E-01
          0                 4           1             2   13     1       0.3055800230E-04       2   13    1         0.1788092412E-02      0.2251576045E-02

    ------------------------------------------------
       NWT REQUIRED            4 OUTER ITERATIONS 
       AND A TOTAL OF          7 INNER ITERATIONS.
    ------------------------------------------------

 NO OUTPUT CONTROL FOR STRESS PERIOD   17   TIME STEP   13
 
 SOLVING FOR HEAD 
                                                   Max.-Head-Change                         Max.-Flux-Residual
  Residual-Control   Outer-Iter.   Inner-Iter.     Column Row Layer    Maximum-Head-Change  Column Row Layer    Maximum-Flux-Residual          L2-NORM 
          0                 1           2             2    2     1       0.8354727656E-02       2    2    1         0.4367447605E+00      0.8706511463E+00
          0                 2           2             4   13     1       0.7678269661E-02       4   13    1         0.4493603069E+00      0.7682858858E+00
          0                 3           2             2   13     1      -0.6973131355E-03       2   13    1        -0.4016865920E-01      0.5434035718E-01
          0                 4           1             2   13     1       0.3175451833E-04       2   13    1         0.1861046345E-02      0.2559663348E-02

    ------------------------------------------------
       NWT REQUIRED            4 OUTER ITERATIONS 
       AND A TOTAL OF          7 INNER ITERATIONS.
    ------------------------------------------------

 NO OUTPUT CONTROL FOR STRESS PERIOD   17   TIME STEP   14
 
 SOLVING FOR HEAD 
                                                   Max.-Head-Change                         Max.-Flux-Residual
  Residual-Control   Outer-Iter.   Inner-Iter.     Column Row Layer    Maximum-Head-Change  Column Row Layer    Maximum-Flux-Residual          L2-NORM 
          0                 1           2             2    2     1       0.8298971182E-02       2    2    1         0.4338093806E+00      0.8983212831E+00
          0                 2           2             4   13     1       0.5877093432E-02       4   13    1         0.3409281224E+00      0.5791501268E+00
          0                 3           2             2   13     1      -0.5267952143E-03       2   13    1        -0.3034587643E-01      0.4247237535E-01
          0                 4           1             2   13     1       0.1722449348E-04       2   13    1         0.1014515457E-02      0.1837850474E-02

    ------------------------------------------------
       NWT REQUIRED            4 OUTER ITERATIONS 
       AND A TOTAL OF          7 INNER ITERATIONS.
    ------------------------------------------------

 NO OUTPUT CONTROL FOR STRESS PERIOD   17   TIME STEP   15
 
 SOLVING FOR HEAD 
                                                   Max.-Head-Change                         Max.-Flux-Residual
  Residual-Control   Outer-Iter.   Inner-Iter.     Column Row Layer    Maximum-Head-Change  Column Row Layer    Maximum-Flux-Residual          L2-NORM 
          0                 1           2             2    2     1       0.8244016376E-02       2   13    1         0.4575691416E+00      0.1185726734E+01
          0                 2           2             2    2     1      -0.8168128778E-03       2    2    1        -0.4309182576E-01      0.9700197530E-01
          0                 3           1             2    2     1       0.7284292141E-04       2    2    1         0.3878264574E-02      0.8092686034E-02

    ------------------------------------------------
       NWT REQUIRED            3 OUTER ITERATIONS 
       AND A TOTAL OF          5 INNER ITERATIONS.
    ------------------------------------------------

 NO OUTPUT CONTROL FOR STRESS PERIOD   17   TIME STEP   16
 
 SOLVING FOR HEAD 
                                                   Max.-Head-Change                         Max.-Flux-Residual
  Residual-Control   Outer-Iter.   Inner-Iter.     Column Row Layer    Maximum-Head-Change  Column Row Layer    Maximum-Flux-Residual          L2-NORM 
          0                 1           2             2    2     1       0.8189716313E-02       2    2    1         0.4280577671E+00      0.1138413196E+01
          0                 2           2             2    2     1      -0.8114308410E-03       2    2    1        -0.4280596851E-01      0.9318479782E-01
          0                 3           1             2    2     1       0.7236290110E-04       2    2    1         0.3852537464E-02      0.7860686393E-02

    ------------------------------------------------
       NWT REQUIRED            3 OUTER ITERATIONS 
       AND A TOTAL OF          5 INNER ITERATIONS.
    ------------------------------------------------

 NO OUTPUT CONTROL FOR STRESS PERIOD   17   TIME STEP   17
 
 SOLVING FOR HEAD 
                                                   Max.-Head-Change                         Max.-Flux-Residual
  Residual-Control   Outer-Iter.   Inner-Iter.     Column Row Layer    Maximum-Head-Change  Column Row Layer    Maximum-Flux-Residual          L2-NORM 
          0                 1           2             2    2     1       0.8136194807E-02       2    2    1         0.4252402923E+00      0.1096209220E+01
          0                 2           2             2    2     1      -0.8061259615E-03       2    2    1        -0.4252421759E-01      0.8857063967E-01
          0                 3           1             2    2     1       0.7188976286E-04       2    2    1         0.3827179949E-02      0.7047246474E-02

    ------------------------------------------------
       NWT REQUIRED            3 OUTER ITERATIONS 
       AND A TOTAL OF          5 INNER ITERATIONS.
    ------------------------------------------------

 NO OUTPUT CONTROL FOR STRESS PERIOD   17   TIME STEP   18
 
 SOLVING FOR HEAD 
                                                   Max.-Head-Change                         Max.-Flux-Residual
  Residual-Control   Outer-Iter.   Inner-Iter.     Column Row Layer    Maximum-Head-Change  Column Row Layer    Maximum-Flux-Residual          L2-NORM 
          0                 1           2             2    2     1       0.8083439629E-02       2    2    1         0.4224632152E+00      0.1058589940E+01
          0                 2           2             2    2     1      -0.8008970307E-03       2    2    1        -0.4224650652E-01      0.8283385727E-01
          0                 3           1             2    2     1       0.7142339716E-04       2    2    1         0.3802185982E-02      0.6908202793E-02

    ------------------------------------------------
       NWT REQUIRED            3 OUTER ITERATIONS 
       AND A TOTAL OF          5 INNER ITERATIONS.
    ------------------------------------------------

 NO OUTPUT CONTROL FOR STRESS PERIOD   17   TIME STEP   19
 
 SOLVING FOR HEAD 
                                                   Max.-Head-Change                         Max.-Flux-Residual
  Residual-Control   Outer-Iter.   Inner-Iter.     Column Row Layer    Maximum-Head-Change  Column Row Layer    Maximum-Flux-Residual          L2-NORM 
          0                 1           2             2    2     1       0.8031351224E-02       2    2    1         0.4197213217E+00      0.1024800450E+01
          0                 2           2             2    2     1      -0.7957341806E-03       2    2    1        -0.4197231386E-01      0.8148901243E-01
          0                 3           1             2    2     1       0.7096292651E-04       2    2    1         0.3777508725E-02      0.6841852177E-02

    ------------------------------------------------
       NWT REQUIRED            3 OUTER ITERATIONS 
       AND A TOTAL OF          5 INNER ITERATIONS.
    ------------------------------------------------

 NO OUTPUT CONTROL FOR STRESS PERIOD   17   TIME STEP   20
 
 SOLVING FOR HEAD 
                                                   Max.-Head-Change                         Max.-Flux-Residual
  Residual-Control   Outer-Iter.   Inner-Iter.     Column Row Layer    Maximum-Head-Change  Column Row Layer    Maximum-Flux-Residual          L2-NORM 
          0                 1           2             2    2     1       0.7980006056E-02       2    2    1         0.4170186047E+00      0.9946581307E+00
          0                 2           2             2    2     1      -0.7906449879E-03       2    2    1        -0.4170203897E-01      0.8025624511E-01
          0                 3           1             2    2     1       0.7050902382E-04       2    2    1         0.3753184037E-02      0.6778679083E-02

    ------------------------------------------------
       NWT REQUIRED            3 OUTER ITERATIONS 
       AND A TOTAL OF          5 INNER ITERATIONS.
    ------------------------------------------------

 NO OUTPUT CONTROL FOR STRESS PERIOD   17   TIME STEP   21
 
 SOLVING FOR HEAD 
                                                   Max.-Head-Change                         Max.-Flux-Residual
  Residual-Control   Outer-Iter.   Inner-Iter.     Column Row Layer    Maximum-Head-Change  Column Row Layer    Maximum-Flux-Residual          L2-NORM 
          0                 1           2             2    2     1       0.7929304173E-02       2    2    1         0.4143498729E+00      0.9677403711E+00
          0                 2           2             2    2     1      -0.7856195507E-03       2    2    1        -0.4143516265E-01      0.7912385244E-01
          0                 3           1             2    2     1       0.7006080719E-04       2    2    1         0.3729165187E-02      0.6717431839E-02

    ------------------------------------------------
       NWT REQUIRED            3 OUTER ITERATIONS 
       AND A TOTAL OF          5 INNER ITERATIONS.
    ------------------------------------------------

 NO OUTPUT CONTROL FOR STRESS PERIOD   17   TIME STEP   22
 
 SOLVING FOR HEAD 
                                                   Max.-Head-Change                         Max.-Flux-Residual
  Residual-Control   Outer-Iter.   Inner-Iter.     Column Row Layer    Maximum-Head-Change  Column Row Layer    Maximum-Flux-Residual          L2-NORM 
          0                 1           2             2    2     1       0.7879322810E-02       2    2    1         0.4117190991E+00      0.9436431552E+00
          0                 2           2             2    2     1      -0.7806655213E-03       2    2    1        -0.4117208221E-01      0.7807613334E-01
          0                 3           1             2    2     1       0.6961895935E-04       2    2    1         0.3705488002E-02      0.6658538542E-02

    ------------------------------------------------
       NWT REQUIRED            3 OUTER ITERATIONS 
       AND A TOTAL OF          5 INNER ITERATIONS.
    ------------------------------------------------

 NO OUTPUT CONTROL FOR STRESS PERIOD   17   TIME STEP   23
 
 SOLVING FOR HEAD 
                                                   Max.-Head-Change                         Max.-Flux-Residual
  Residual-Control   Outer-Iter.   Inner-Iter.     Column Row Layer    Maximum-Head-Change  Column Row Layer    Maximum-Flux-Residual          L2-NORM 
          0                 1           2             2    2     1       0.7830050344E-02       2    2    1         0.4091257115E+00      0.8870187884E+00
          0                 2           2             2    2     1      -0.7757817456E-03       2    2    1        -0.4091274046E-01      0.9096801003E-01
          0                 3           1             2    2     1       0.6918337764E-04       2    2    1         0.3682147297E-02      0.6774393598E-02

    ------------------------------------------------
       NWT REQUIRED            3 OUTER ITERATIONS 
       AND A TOTAL OF          5 INNER ITERATIONS.
    ------------------------------------------------

 NO OUTPUT CONTROL FOR STRESS PERIOD   17   TIME STEP   24
 
 SOLVING FOR HEAD 
                                                   Max.-Head-Change                         Max.-Flux-Residual
  Residual-Control   Outer-Iter.   Inner-Iter.     Column Row Layer    Maximum-Head-Change  Column Row Layer    Maximum-Flux-Residual          L2-NORM 
          0                 1           2             2    2     1       0.7781388207E-02       2    2    1         0.4065645265E+00      0.8780206334E+00
          0                 2           2             4   13     1       0.7989756155E-02       4   13    1         0.4675684841E+00      0.8024327023E+00
          0                 3           2             4   13     1      -0.6091163136E-03       4   13    1        -0.3597650564E-01      0.5700362960E-01
          0                 4           1             2   13     1      -0.4785519868E-04       2   13    1        -0.2770945262E-02      0.4869688144E-02

    ------------------------------------------------
       NWT REQUIRED            4 OUTER ITERATIONS 
       AND A TOTAL OF          7 INNER ITERATIONS.
    ------------------------------------------------

 NO OUTPUT CONTROL FOR STRESS PERIOD   17   TIME STEP   25
 
 SOLVING FOR HEAD 
                                                   Max.-Head-Change                         Max.-Flux-Residual
  Residual-Control   Outer-Iter.   Inner-Iter.     Column Row Layer    Maximum-Head-Change  Column Row Layer    Maximum-Flux-Residual          L2-NORM 
          0                 1           2             2    2     1       0.7732566050E-02       2    2    1         0.4039949097E+00      0.8844514418E+00
          0                 2           2             4   13     1       0.8003751306E-02       4   13    1         0.4683800284E+00      0.8038993603E+00
          0                 3           2             4   13     1      -0.6188572493E-03       4   13    1        -0.3655014104E-01      0.5814001653E-01
          0                 4           1             2   13     1      -0.4669700058E-04       2   13    1        -0.2703772145E-02      0.4760307209E-02

    ------------------------------------------------
       NWT REQUIRED            4 OUTER ITERATIONS 
       AND A TOTAL OF          7 INNER ITERATIONS.
    ------------------------------------------------

 NO OUTPUT CONTROL FOR STRESS PERIOD   17   TIME STEP   26
 
 SOLVING FOR HEAD 
                                                   Max.-Head-Change                         Max.-Flux-Residual
  Residual-Control   Outer-Iter.   Inner-Iter.     Column Row Layer    Maximum-Head-Change  Column Row Layer    Maximum-Flux-Residual          L2-NORM 
          0                 1           2             2    2     1       0.7682257565E-02       2    2    1         0.4013476059E+00      0.8906563148E+00
          0                 2           2             4   13     1       0.8016844411E-02       4   13    1         0.4690798779E+00      0.8057237383E+00
          0                 3           2             4   13     1      -0.6269591496E-03       4   13    1        -0.3706012774E-01      0.5858565543E-01
          0                 4           1             2   13     1      -0.4621802487E-04       2   13    1        -0.2675916176E-02      0.4770121225E-02

    ------------------------------------------------
       NWT REQUIRED            4 OUTER ITERATIONS 
       AND A TOTAL OF          7 INNER ITERATIONS.
    ------------------------------------------------

 NO OUTPUT CONTROL FOR STRESS PERIOD   17   TIME STEP   27
 
 SOLVING FOR HEAD 
                                                   Max.-Head-Change                         Max.-Flux-Residual
  Residual-Control   Outer-Iter.   Inner-Iter.     Column Row Layer    Maximum-Head-Change  Column Row Layer    Maximum-Flux-Residual          L2-NORM 
          0                 1           2             2    2     1       0.7632583784E-02       2    2    1         0.3987337579E+00      0.8965408722E+00
          0                 2           2             4   13     1       0.8027253375E-02       4   13    1         0.4696667492E+00      0.8077186003E+00
          0                 3           2             4   13     1      -0.6347192722E-03       4   13    1        -0.3751652103E-01      0.5916679308E-01
          0                 4           1             2   13     1      -0.4588126618E-04       2   13    1        -0.2655373227E-02      0.4796898754E-02

    ------------------------------------------------
       NWT REQUIRED            4 OUTER ITERATIONS 
       AND A TOTAL OF          7 INNER ITERATIONS.
    ------------------------------------------------

 NO OUTPUT CONTROL FOR STRESS PERIOD   17   TIME STEP   28
 
 SOLVING FOR HEAD 
                                                   Max.-Head-Change                         Max.-Flux-Residual
  Residual-Control   Outer-Iter.   Inner-Iter.     Column Row Layer    Maximum-Head-Change  Column Row Layer    Maximum-Flux-Residual          L2-NORM 
          0                 1           2             4   13     1      -0.1785627707E-01       4   13    1        -0.1031437963E+01      0.1780337102E+01
          0                 2           2             4   13     1       0.8992299100E-02       4   13    1         0.5240538269E+00      0.8987532777E+00
          0                 3           2             4   13     1      -0.8436333549E-03       4   13    1        -0.4966197374E-01      0.8325372500E-01
          0                 4           1             6   13     1      -0.9504366537E-05       6   13    1        -0.5194699420E-03      0.8754618959E-03

    ------------------------------------------------
       NWT REQUIRED            4 OUTER ITERATIONS 
       AND A TOTAL OF          7 INNER ITERATIONS.
    ------------------------------------------------

 NO OUTPUT CONTROL FOR STRESS PERIOD   17   TIME STEP   29
 
 SOLVING FOR HEAD 
                                                   Max.-Head-Change                         Max.-Flux-Residual
  Residual-Control   Outer-Iter.   Inner-Iter.     Column Row Layer    Maximum-Head-Change  Column Row Layer    Maximum-Flux-Residual          L2-NORM 
          0                 1           2             4   13     1      -0.2696062927E-01       4   13    1        -0.1548615889E+01      0.2639629354E+01
          0                 2           2             4   13     1       0.9562163558E-02       4   13    1         0.5550685046E+00      0.9586304594E+00
          0                 3           2             7   13     1      -0.1628345648E-02       7   13    1        -0.8869047579E-01      0.1232140724E+00
          0                 4           2             7   13     1       0.1432383370E-03       7   13    1         0.7883951676E-02      0.7920812612E-02
          0                 5           1             7   13     1      -0.1136553024E-04       7   13    1        -0.6313200597E-03      0.6333055078E-03

    ------------------------------------------------
       NWT REQUIRED            5 OUTER ITERATIONS 
       AND A TOTAL OF          9 INNER ITERATIONS.
    ------------------------------------------------

 NO OUTPUT CONTROL FOR STRESS PERIOD   17   TIME STEP   30



 STREAM LISTING     PERIOD     17   STEP       30

 LAYER ROW COL. STREAM  RCH.  FLOW INTO     FLOW TO   FLOW OUT OF   OVRLND.     DIRECT     STREAM       STREAM     STREAM     STREAM   STREAMBED  STREAMBED
                SEG.NO.  NO.  STRM. RCH.    AQUIFER    STRM. RCH.    RUNOFF     PRECIP       ET          HEAD       DEPTH      WIDTH   CONDCTNC.   GRADIENT

   1    1    1     1     1    3.5000E+01  2.8629E-01   3.4714E+01  0.000E+00  0.000E+00  0.000E+00  1.09434E+03  1.292E+00  1.482E+01  6.670E-02  1.431E+00
   1    2    2     1     2    3.4714E+01  4.4325E-01   3.4270E+01  0.000E+00  0.000E+00  0.000E+00  1.08935E+03  1.289E+00  1.476E+01  1.033E-01  1.430E+00
   1    3    3     1     3    3.4270E+01  3.7790E-01   3.3893E+01  0.000E+00  0.000E+00  0.000E+00  1.08370E+03  1.286E+00  1.470E+01  8.817E-02  1.429E+00
   1    3    4     1     4    3.3893E+01  3.4789E-01   3.3545E+01  0.000E+00  0.000E+00  0.000E+00  1.07869E+03  1.283E+00  1.464E+01  8.123E-02  1.428E+00
   1    4    5     2     1    3.1545E+01  3.4194E-01   3.1203E+01  0.000E+00  0.000E+00  0.000E+00  1.07332E+03  1.384E+00  1.200E+01  7.800E-02  1.461E+00
   1    5    6     2     2    3.1203E+01  2.6255E-01   3.0940E+01  0.000E+00  0.000E+00  0.000E+00  1.06789E+03  1.376E+00  1.200E+01  6.000E-02  1.459E+00
   1    6    6     2     3    3.0940E+01  2.6213E-01   3.0678E+01  0.000E+00  0.000E+00  0.000E+00  1.06316E+03  1.369E+00  1.200E+01  6.000E-02  1.456E+00
   1    7    6     2     4    3.0678E+01  2.6171E-01   3.0416E+01  0.000E+00  0.000E+00  0.000E+00  1.05844E+03  1.362E+00  1.200E+01  6.000E-02  1.454E+00
   1    8    6     2     5    3.0416E+01  2.6129E-01   3.0155E+01  0.000E+00  0.000E+00  0.000E+00  1.05371E+03  1.355E+00  1.200E+01  6.000E-02  1.452E+00
   1    3    5     3     1    2.0000E+00  2.8252E-01   1.7175E+00  0.000E+00  0.000E+00  0.000E+00  1.07555E+03  1.909E+00  9.636E+00  7.227E-02  1.955E+00
   1    3    6     3     2    1.7175E+00  2.4905E-01   1.4684E+00  0.000E+00  0.000E+00  0.000E+00  1.07264E+03  1.727E+00  8.909E+00  6.682E-02  1.864E+00
   1    3    7     3     3    1.4684E+00  1.9718E-01   1.2712E+00  0.000E+00  0.000E+00  0.000E+00  1.06987E+03  1.555E+00  8.218E+00  5.547E-02  1.777E+00
   1    4    8     3     4    1.2712E+00  2.2567E-01   1.0456E+00  0.000E+00  0.000E+00  0.000E+00  1.06682E+03  1.364E+00  7.455E+00  6.709E-02  1.682E+00
   1    5    8     3     5    1.0456E+00  1.5790E-01   8.8768E-01  0.000E+00  0.000E+00  0.000E+00  1.06362E+03  1.164E+00  6.655E+00  4.991E-02  1.582E+00
   1    6    8     3     6    8.8768E-01  5.5980E-02   8.3170E-01  0.000E+00  0.000E+00  0.000E+00  1.06158E+03  1.036E+00  6.145E+00  1.844E-02  1.518E+00
   1    5   10     4     1    1.0000E+01  9.0919E-02   9.9091E+00  0.000E+00  0.000E+00  0.000E+00  1.07836E+03  6.368E-01  1.000E+01  2.500E-02  1.212E+00
   1    5    9     4     2    9.9091E+00  1.8158E-01   9.7275E+00  0.000E+00  0.000E+00  0.000E+00  1.07154E+03  6.315E-01  1.000E+01  5.000E-02  1.211E+00
   1    6    8     4     3    9.7275E+00  1.2689E-01   9.6006E+00  0.000E+00  0.000E+00  0.000E+00  1.06381E+03  6.256E-01  1.000E+01  3.500E-02  1.209E+00
   1    6    8     5     1    1.0432E+01  2.2686E-01   1.0205E+01  0.000E+00  0.000E+00  0.000E+00  1.05868E+03  6.790E-01  1.542E+01  6.166E-02  1.226E+00
   1    7    7     5     2    1.0205E+01  2.7894E-01   9.9265E+00  0.000E+00  0.000E+00  0.000E+00  1.05417E+03  6.732E-01  1.519E+01  7.594E-02  1.224E+00
   1    8    7     5     3    9.9265E+00  1.9221E-01   9.7343E+00  0.000E+00  0.000E+00  0.000E+00  1.04992E+03  6.676E-01  1.497E+01  5.241E-02  1.223E+00
   1    8    6     5     4    9.7343E+00  1.3577E-01   9.5985E+00  0.000E+00  0.000E+00  0.000E+00  1.04691E+03  6.637E-01  1.482E+01  3.706E-02  1.221E+00
   1    9    6     6     1    3.9285E+01  2.7588E-01   3.9009E+01  0.000E+00  0.000E+00  0.000E+00  1.04433E+03  1.598E+00  1.200E+01  6.000E-02  1.533E+00
   1   10    7     6     2    3.9009E+01  2.7548E-01   3.8733E+01  0.000E+00  0.000E+00  0.000E+00  1.03977E+03  1.591E+00  1.200E+01  6.000E-02  1.530E+00
   1   11    7     6     3    3.8733E+01  2.7507E-01   3.8458E+01  0.000E+00  0.000E+00  0.000E+00  1.03522E+03  1.585E+00  1.200E+01  6.000E-02  1.528E+00
   1   12    7     6     4    3.8458E+01  2.7466E-01   3.8184E+01  0.000E+00  0.000E+00  0.000E+00  1.03067E+03  1.578E+00  1.200E+01  6.000E-02  1.526E+00
   1   13    7     6     5    3.8184E+01  8.7302E-03   3.8175E+01  0.000E+00  0.000E+00  0.000E+00  1.02748E+03  1.574E+00  1.200E+01  2.400E-02  1.213E-01
   1   14    9     7     1    1.5000E+02  1.3397E+00   1.4866E+02  0.000E+00  0.000E+00  0.000E+00  1.03987E+03  2.288E+00  5.529E+01  5.593E-01  7.985E-01
   1   13    8     7     2    1.4866E+02  1.8329E+00   1.4683E+02  0.000E+00  0.000E+00  0.000E+00  1.03478E+03  2.279E+00  5.526E+01  6.148E-01  9.938E-01
   1   13    7     7     3    1.4683E+02  1.4354E+00   1.4539E+02  0.000E+00  0.000E+00  0.000E+00  1.02969E+03  2.271E+00  5.522E+01  5.585E-01  8.568E-01
   1   13    6     8     1    1.8357E+02  9.1251E-01   1.8265E+02  0.000E+00  0.000E+00  0.000E+00  1.02491E+03  3.036E+00  4.402E+01  4.485E-01  6.781E-01
   1   13    5     8     2    1.8265E+02  1.4254E-01   1.8251E+02  0.000E+00  0.000E+00  0.000E+00  1.01866E+03  3.032E+00  4.397E+01  4.481E-01  1.060E-01
   1   13    4     8     3    1.8251E+02 -3.2690E+00   1.8578E+02  0.000E+00  0.000E+00  0.000E+00  1.01242E+03  3.042E+00  4.411E+01  4.495E+00 -2.424E-01
   1   13    3     8     4    1.8578E+02 -4.4186E+00   1.9020E+02  0.000E+00  0.000E+00  0.000E+00  1.00619E+03  3.066E+00  4.445E+01  4.530E+00 -3.251E-01
   1   13    2     8     5    1.9020E+02 -3.4287E+00   1.9363E+02  0.000E+00  0.000E+00  0.000E+00  9.99965E+02  3.090E+00  4.480E+01  4.565E+00 -2.504E-01
   1   13    1     8     6    1.9363E+02 -2.3438E+00   1.9597E+02  0.000E+00  0.000E+00  0.000E+00  9.94982E+02  3.107E+00  4.505E+01  2.754E+00 -2.836E-01
   1    6    8     9     1    4.6883E-01  0.0000E+00   4.6883E-01  0.000E+00  0.000E+00  0.000E+00  1.07859E+03  8.593E-02  4.000E+00  0.000E+00  1.029E+00





UNSATURATED ZONE PACKAGE VOLUMETRIC BUDGET FOR  TIME STEP    30 STRESS PERIOD   17
  ------------------------------------------------------------------------------



     CUMULATIVE VOLUMES      L**3       RATES FOR THIS TIME STEP      L**3/T
     ------------------                 ------------------------

           IN:                                      IN:
           ---                                      ---
        INFILTRATION =    56612780.5349          INFILTRATION =           0.4688

          OUT:                                     OUT:
          ----                                     ----
              UZF ET =    43863084.9630                UZF ET =           0.6148
        UZF RECHARGE =     2556933.1966          UZF RECHARGE =           0.0247

            IN - OUT =    10192762.3753              IN - OUT =          -0.1707

          STORAGE:                                 STORAGE:
          --------                                 --------
      STORAGE CHANGE =    10210116.9606        STORAGE CHANGE =          -0.1706

 PERCENT DISCREPANCY IS DIFFERENCE BETWEEN IN-OUT MINUS CHANGE IN STORAGE
 DIVIDED BY THE AVERAGE OF IN AND OUT TIMES 100

 PERCENT DISCREPANCY =          -0.01     PERCENT DISCREPANCY =          -0.00






1
  VOLUMETRIC BUDGET FOR ENTIRE MODEL AT END OF TIME STEP   30, STRESS PERIOD  17
  ------------------------------------------------------------------------------

     CUMULATIVE VOLUMES      L**3       RATES FOR THIS TIME STEP      L**3/T
     ------------------                 ------------------------

           IN:                                      IN:
           ---                                      ---
    AWU WELLS            =    11225853.0000      AWU WELLS            =           0.0000
    DIVERSION SEGMENTS   =    45313708.0000      DIVERSION SEGMENTS   =           0.4688
    GW IRRIGATION        =           0.0000      GW IRRIGATION        =           0.0000
    SW IRRIGATION        =           0.0000      SW IRRIGATION        =           0.0000
    EFFICIENCY FACTOR GW =           0.0000      EFFICIENCY FACTOR GW =           0.0000
    EFFICIENCY FACTOR SW =           0.0000      EFFICIENCY FACTOR SW =           0.0000

                TOTAL IN =    56539560.0000                  TOTAL IN =           0.4688

          OUT:                                     OUT:
          ----                                     ----
    AWU WELLS            =           0.0000      AWU WELLS            =           0.0000
    DIVERSION SEGMENTS   =           0.0000      DIVERSION SEGMENTS   =           0.0000
    GW IRRIGATION        =    11225853.0000      GW IRRIGATION        =           0.0000
    SW IRRIGATION        =    45313708.0000      SW IRRIGATION        =           0.4688
    EFFICIENCY FACTOR GW =           0.0000      EFFICIENCY FACTOR GW =           0.0000
    EFFICIENCY FACTOR SW =           0.0000      EFFICIENCY FACTOR SW =           0.0000

               TOTAL OUT =    56539560.0000                 TOTAL OUT =           0.4688

                IN - OUT =           0.0000                  IN - OUT =           0.0000

     PERCENT DISCREPANCY =           0.00         PERCENT DISCREPANCY =           0.00



1
  VOLUMETRIC BUDGET FOR ENTIRE MODEL AT END OF TIME STEP   30, STRESS PERIOD  17
  ------------------------------------------------------------------------------

     CUMULATIVE VOLUMES      L**3       RATES FOR THIS TIME STEP      L**3/T
     ------------------                 ------------------------

           IN:                                      IN:
           ---                                      ---
             STORAGE     =    62663608.0000               STORAGE     =           3.9052
       CONSTANT HEAD     =           0.0000         CONSTANT HEAD     =           0.0000
     HEAD DEP BOUNDS     =    12046229.0000       HEAD DEP BOUNDS     =           0.2860
      STREAM LEAKAGE     =   498099328.0000        STREAM LEAKAGE     =          12.0194
        UZF RECHARGE     =     2556932.2500          UZF RECHARGE     =       2.4706E-02
               GW ET     =           0.0000                 GW ET     =           0.0000
     SURFACE LEAKAGE     =           0.0000       SURFACE LEAKAGE     =           0.0000
    AWU WELLS            =           0.0000      AWU WELLS            =           0.0000

                TOTAL IN =   575366080.0000                  TOTAL IN =          16.2353

          OUT:                                     OUT:
          ----                                     ----
             STORAGE     =    85022472.0000               STORAGE     =           1.9352
       CONSTANT HEAD     =           0.0000         CONSTANT HEAD     =           0.0000
     HEAD DEP BOUNDS     =    12124320.0000       HEAD DEP BOUNDS     =           0.2976
      STREAM LEAKAGE     =   411064288.0000        STREAM LEAKAGE     =          13.4601
        UZF RECHARGE     =           0.0000          UZF RECHARGE     =           0.0000
               GW ET     =    55935732.0000                 GW ET     =           0.5423
     SURFACE LEAKAGE     =           0.0000       SURFACE LEAKAGE     =           0.0000
    AWU WELLS            =    11225853.0000      AWU WELLS            =           0.0000

               TOTAL OUT =   575372672.0000                 TOTAL OUT =          16.2352

                IN - OUT =       -6592.0000                  IN - OUT =       4.9591E-05

     PERCENT DISCREPANCY =          -0.00         PERCENT DISCREPANCY =           0.00






         TIME SUMMARY AT END OF TIME STEP   30 IN STRESS PERIOD   17
                    SECONDS     MINUTES      HOURS       DAYS        YEARS
                    -----------------------------------------------------------
   TIME STEP LENGTH  87600.      1460.0      24.333      1.0139     2.77588E-03
 STRESS PERIOD TIME 2.62800E+06  43800.      730.00      30.417     8.32763E-02
         TOTAL TIME 4.21344E+07 7.02240E+05  11704.      487.67      1.3352    
1
1
                            STRESS PERIOD NO.   18, LENGTH =   2628000.    
                            -----------------------------------------------

                              NUMBER OF TIME STEPS =    30

                               MULTIPLIER FOR DELT =     1.000

                            INITIAL TIME STEP SIZE =   87600.00    

 REUSING NON-PARAMETER GHB CELLS FROM LAST STRESS PERIOD

      2 GHB CELLS

 REUSING STREAM SEGMENT DATA FROM LAST STRESS PERIOD



            AREAL INFILTRATION RATE
 READING ON UNIT   19 WITH FORMAT: (10F4.0)            

            1           2           3           4           5           6           7           8           9          10
 ........................................................................................................................
   1    0.000       0.000       0.000       0.000       0.000       0.000       0.000       0.000       0.000       0.000    
   2    0.000       0.000       0.000       0.000       0.000       0.000       0.000       0.000       0.000       0.000    
   3    0.000       0.000       0.000       0.000       0.000       0.000       0.000       0.000       0.000       0.000    
   4    0.000       0.000       0.000       0.000       0.000       0.000       0.000       0.000       0.000       0.000    
   5    0.000       0.000       0.000       0.000       0.000       0.000       0.000       0.000       0.000       0.000    
   6    0.000       0.000       0.000       0.000       0.000       0.000       0.000       0.000       0.000       0.000    
   7    0.000       0.000       0.000       0.000       0.000       0.000       0.000       0.000       0.000       0.000    
   8    0.000       0.000       0.000       0.000       0.000       0.000       0.000       0.000       0.000       0.000    
   9    0.000       0.000       0.000       0.000       0.000       0.000       0.000       0.000       0.000       0.000    
  10    0.000       0.000       0.000       0.000       0.000       0.000       0.000       0.000       0.000       0.000    
  11    0.000       0.000       0.000       0.000       0.000       0.000       0.000       0.000       0.000       0.000    
  12    0.000       0.000       0.000       0.000       0.000       0.000       0.000       0.000       0.000       0.000    
  13    0.000       0.000       0.000       0.000       0.000       0.000       0.000       0.000       0.000       0.000    
  14    0.000       0.000       0.000       0.000       0.000       0.000       0.000       0.000       0.000       0.000    
  15    0.000       0.000       0.000       0.000       0.000       0.000       0.000       0.000       0.000       0.000    

                  ET RATE =  1.000000E-08

 USING ET EXTINCTION DEPTH FROM PREVIOUS STRESS PERIOD. CURRENT PERIOD IS:      18

 USING EXTINCTION WATER CONTENT FROM PREVIOUS STRESS PERIOD. CURRENT PERIOD IS:      18

 PROCESSING AWU STRESS PERIOD DATA

 READING AWU STRESS PERIOD DATA

 READING IRRIGATION STREAM

 READING IRRIGATION WELL

 READING SUPPLEMENTAL WEL

 END PROCESSING AWU STRESS PERIOD DATA OPTIONS
 
 SOLVING FOR HEAD 
                                                   Max.-Head-Change                         Max.-Flux-Residual
  Residual-Control   Outer-Iter.   Inner-Iter.     Column Row Layer    Maximum-Head-Change  Column Row Layer    Maximum-Flux-Residual          L2-NORM 
          0                 1           2             4   13     1      -0.2532969090E-01       4   13    1        -0.1454971207E+01      0.2509042938E+01
          0                 2           2             4   13     1       0.7651370611E-02       4   13    1         0.4442014712E+00      0.7692340557E+00
          0                 3           2             7   13     1      -0.1605073150E-02       7   13    1        -0.8747804033E-01      0.1148988711E+00
          0                 4           2             7   13     1       0.1392454523E-03       7   13    1         0.7678342113E-02      0.9843239123E-02
          0                 5           1             7   13     1      -0.1104979829E-04       7   13    1        -0.6148910097E-03      0.7797389877E-03

    ------------------------------------------------
       NWT REQUIRED            5 OUTER ITERATIONS 
       AND A TOTAL OF          9 INNER ITERATIONS.
    ------------------------------------------------

 NO OUTPUT CONTROL FOR STRESS PERIOD   18   TIME STEP    1
 
 SOLVING FOR HEAD 
                                                   Max.-Head-Change                         Max.-Flux-Residual
  Residual-Control   Outer-Iter.   Inner-Iter.     Column Row Layer    Maximum-Head-Change  Column Row Layer    Maximum-Flux-Residual          L2-NORM 
          0                 1           2             4   13     1      -0.1801492992E-01       4   13    1        -0.1036842332E+01      0.1825514699E+01
          0                 2           2             4   13     1       0.1769335982E-02       4   13    1         0.1027809961E+00      0.1770531339E+00
          0                 3           2             4   13     1      -0.1562557239E-03       4   13    1        -0.9161491376E-02      0.1546746650E-01
          0                 4           1             4   13     1       0.1226794072E-04       4   13    1         0.7259902595E-03      0.1200210853E-02

    ------------------------------------------------
       NWT REQUIRED            4 OUTER ITERATIONS 
       AND A TOTAL OF          7 INNER ITERATIONS.
    ------------------------------------------------

 NO OUTPUT CONTROL FOR STRESS PERIOD   18   TIME STEP    2
 
 SOLVING FOR HEAD 
                                                   Max.-Head-Change                         Max.-Flux-Residual
  Residual-Control   Outer-Iter.   Inner-Iter.     Column Row Layer    Maximum-Head-Change  Column Row Layer    Maximum-Flux-Residual          L2-NORM 
          0                 1           2             4   13     1      -0.1628766002E-01       4   13    1        -0.9370049974E+00      0.1682060219E+01
          0                 2           2             4   13     1       0.1599531976E-02       4   13    1         0.9287475169E-01      0.1630019507E+00
          0                 3           2             4   13     1      -0.1412528942E-03       4   13    1        -0.8278073219E-02      0.1423588995E-01
          0                 4           1             4   13     1       0.1109070735E-04       4   13    1         0.6560344209E-03      0.1104072834E-02

    ------------------------------------------------
       NWT REQUIRED            4 OUTER ITERATIONS 
       AND A TOTAL OF          7 INNER ITERATIONS.
    ------------------------------------------------

 NO OUTPUT CONTROL FOR STRESS PERIOD   18   TIME STEP    3
 
 SOLVING FOR HEAD 
                                                   Max.-Head-Change                         Max.-Flux-Residual
  Residual-Control   Outer-Iter.   Inner-Iter.     Column Row Layer    Maximum-Head-Change  Column Row Layer    Maximum-Flux-Residual          L2-NORM 
          0                 1           2             4   13     1      -0.1473298449E-01       4   13    1        -0.8471727351E+00      0.1551631446E+01
          0                 2           2             4   13     1       0.1446722770E-02       4   13    1         0.8396286341E-01      0.1502216761E+00
          0                 3           2             4   13     1      -0.1277291282E-03       4   13    1        -0.7481995507E-02      0.1311500192E-01
          0                 4           1             4   13     1       0.1001249895E-04       4   13    1         0.5919727773E-03      0.1015984433E-02

    ------------------------------------------------
       NWT REQUIRED            4 OUTER ITERATIONS 
       AND A TOTAL OF          7 INNER ITERATIONS.
    ------------------------------------------------

 NO OUTPUT CONTROL FOR STRESS PERIOD   18   TIME STEP    4
 
 SOLVING FOR HEAD 
                                                   Max.-Head-Change                         Max.-Flux-Residual
  Residual-Control   Outer-Iter.   Inner-Iter.     Column Row Layer    Maximum-Head-Change  Column Row Layer    Maximum-Flux-Residual          L2-NORM 
          0                 1           2             4   13     1      -0.1333309102E-01       4   13    1        -0.7663104332E+00      0.1433011763E+01
          0                 2           2             4   13     1       0.1309139589E-02       4   13    1         0.7594157466E-01      0.1385952545E+00
          0                 3           2             4   13     1      -0.1155805191E-03       4   13    1        -0.6767089080E-02      0.1209827288E-01
          0                 4           1             4   13     1       0.9064833037E-05       4   13    1         0.5356696875E-03      0.9378476403E-03

    ------------------------------------------------
       NWT REQUIRED            4 OUTER ITERATIONS 
       AND A TOTAL OF          7 INNER ITERATIONS.
    ------------------------------------------------

 NO OUTPUT CONTROL FOR STRESS PERIOD   18   TIME STEP    5
 
 SOLVING FOR HEAD 
                                                   Max.-Head-Change                         Max.-Flux-Residual
  Residual-Control   Outer-Iter.   Inner-Iter.     Column Row Layer    Maximum-Head-Change  Column Row Layer    Maximum-Flux-Residual          L2-NORM 
          0                 1           2             2   13     1      -0.1228024354E-01       4   13    1        -0.6935069031E+00      0.1325111899E+01
          0                 2           2             4   13     1       0.1185213838E-02       4   13    1         0.6871894687E-01      0.1280037752E+00
          0                 3           1             4   13     1      -0.1046293221E-03       4   13    1        -0.6122876542E-02      0.1116913728E-01
          0                 4           1             4   13     1       0.8217710535E-05       4   13    1         0.4853677801E-03      0.8670810101E-03

    ------------------------------------------------
       NWT REQUIRED            4 OUTER ITERATIONS 
       AND A TOTAL OF          6 INNER ITERATIONS.
    ------------------------------------------------

 NO OUTPUT CONTROL FOR STRESS PERIOD   18   TIME STEP    6
 
 SOLVING FOR HEAD 
                                                   Max.-Head-Change                         Max.-Flux-Residual
  Residual-Control   Outer-Iter.   Inner-Iter.     Column Row Layer    Maximum-Head-Change  Column Row Layer    Maximum-Flux-Residual          L2-NORM 
          0                 1           2             2   13     1      -0.1135302612E-01       2   13    1        -0.6402412888E+00      0.1226933386E+01
          0                 2           2             2   13     1       0.1078409303E-02       4   13    1         0.6221580879E-01      0.1183529032E+00
          0                 3           1             4   13     1      -0.9476557054E-04       4   13    1        -0.5542838490E-02      0.1032471819E-01

    ------------------------------------------------
       NWT REQUIRED            3 OUTER ITERATIONS 
       AND A TOTAL OF          5 INNER ITERATIONS.
    ------------------------------------------------

 NO OUTPUT CONTROL FOR STRESS PERIOD   18   TIME STEP    7
 
 SOLVING FOR HEAD 
                                                   Max.-Head-Change                         Max.-Flux-Residual
  Residual-Control   Outer-Iter.   Inner-Iter.     Column Row Layer    Maximum-Head-Change  Column Row Layer    Maximum-Flux-Residual          L2-NORM 
          0                 1           2             2   13     1      -0.1337737270E-01       2   13    1        -0.7536771597E+00      0.1425215655E+01
          0                 2           2             4   13     1       0.4127406469E-02       4   13    1         0.2394267517E+00      0.4240059069E+00
          0                 3           2             4   13     1      -0.3643529511E-03       4   13    1        -0.2133242872E-01      0.3701422990E-01
          0                 4           1             4   13     1       0.2866930459E-04       4   13    1         0.1694227387E-02      0.2870714702E-02

    ------------------------------------------------
       NWT REQUIRED            4 OUTER ITERATIONS 
       AND A TOTAL OF          7 INNER ITERATIONS.
    ------------------------------------------------

 NO OUTPUT CONTROL FOR STRESS PERIOD   18   TIME STEP    8
 
 SOLVING FOR HEAD 
                                                   Max.-Head-Change                         Max.-Flux-Residual
  Residual-Control   Outer-Iter.   Inner-Iter.     Column Row Layer    Maximum-Head-Change  Column Row Layer    Maximum-Flux-Residual          L2-NORM 
          0                 1           2             2   13     1      -0.1682706901E-01       2   13    1        -0.9466021918E+00      0.1769121110E+01
          0                 2           2             4   13     1       0.8820655660E-02       4   13    1         0.5117909762E+00      0.9011896589E+00
          0                 3           2             7   13     1      -0.1603115284E-02       7   13    1        -0.8736013340E-01      0.1153332282E+00
          0                 4           2             7   13     1       0.1429383445E-03       7   13    1         0.7862045873E-02      0.9767585526E-02
          0                 5           1             7   13     1      -0.1134232729E-04       7   13    1        -0.6296846191E-03      0.7399585170E-03

    ------------------------------------------------
       NWT REQUIRED            5 OUTER ITERATIONS 
       AND A TOTAL OF          9 INNER ITERATIONS.
    ------------------------------------------------

 NO OUTPUT CONTROL FOR STRESS PERIOD   18   TIME STEP    9
 
 SOLVING FOR HEAD 
                                                   Max.-Head-Change                         Max.-Flux-Residual
  Residual-Control   Outer-Iter.   Inner-Iter.     Column Row Layer    Maximum-Head-Change  Column Row Layer    Maximum-Flux-Residual          L2-NORM 
          0                 1           2             2   13     1      -0.1611170885E-01       2   13    1        -0.9063210899E+00      0.1694219223E+01
          0                 2           2             4   13     1       0.8764692507E-02       4   13    1         0.5085296146E+00      0.8961859559E+00
          0                 3           2             7   13     1      -0.1602709458E-02       7   13    1        -0.8733823845E-01      0.1150130022E+00
          0                 4           2             7   13     1       0.1429041979E-03       7   13    1         0.7860186452E-02      0.9739198782E-02
          0                 5           1             7   13     1      -0.1134018233E-04       7   13    1        -0.6295684211E-03      0.7379243847E-03

    ------------------------------------------------
       NWT REQUIRED            5 OUTER ITERATIONS 
       AND A TOTAL OF          9 INNER ITERATIONS.
    ------------------------------------------------

 NO OUTPUT CONTROL FOR STRESS PERIOD   18   TIME STEP   10
 
 SOLVING FOR HEAD 
                                                   Max.-Head-Change                         Max.-Flux-Residual
  Residual-Control   Outer-Iter.   Inner-Iter.     Column Row Layer    Maximum-Head-Change  Column Row Layer    Maximum-Flux-Residual          L2-NORM 
          0                 1           2             2   13     1      -0.1545112325E-01       2   13    1        -0.8691273891E+00      0.1625600630E+01
          0                 2           2             4   13     1       0.8713715597E-02       4   13    1         0.5055601678E+00      0.8915543812E+00
          0                 3           2             7   13     1      -0.1570776242E-02       7   13    1        -0.8638136810E-01      0.1140208040E+00
          0                 4           2             7   13     1       0.1246514135E-03       7   13    1         0.6917690832E-02      0.8981848103E-02
          0                 5           1             7   13     1      -0.8680234778E-05       7   13    1        -0.4861265620E-03      0.6196801443E-03

    ------------------------------------------------
       NWT REQUIRED            5 OUTER ITERATIONS 
       AND A TOTAL OF          9 INNER ITERATIONS.
    ------------------------------------------------

 NO OUTPUT CONTROL FOR STRESS PERIOD   18   TIME STEP   11
 
 SOLVING FOR HEAD 
                                                   Max.-Head-Change                         Max.-Flux-Residual
  Residual-Control   Outer-Iter.   Inner-Iter.     Column Row Layer    Maximum-Head-Change  Column Row Layer    Maximum-Flux-Residual          L2-NORM 
          0                 1           2             2   13     1      -0.1484089609E-01       2   13    1        -0.8347718625E+00      0.1562675612E+01
          0                 2           2             4   13     1       0.8667739451E-02       4   13    1         0.5028832836E+00      0.8872973583E+00
          0                 3           2             7   13     1      -0.1570211439E-02       7   13    1        -0.8635049712E-01      0.1137452026E+00
          0                 4           2             7   13     1       0.1246018262E-03       7   13    1         0.6914954842E-02      0.8961151811E-02
          0                 5           1             7   13     1      -0.8677820368E-05       7   13    1        -0.4859920646E-03      0.6190306174E-03

    ------------------------------------------------
       NWT REQUIRED            5 OUTER ITERATIONS 
       AND A TOTAL OF          9 INNER ITERATIONS.
    ------------------------------------------------

 NO OUTPUT CONTROL FOR STRESS PERIOD   18   TIME STEP   12
 
 SOLVING FOR HEAD 
                                                   Max.-Head-Change                         Max.-Flux-Residual
  Residual-Control   Outer-Iter.   Inner-Iter.     Column Row Layer    Maximum-Head-Change  Column Row Layer    Maximum-Flux-Residual          L2-NORM 
          0                 1           2             2   13     1      -0.1427728667E-01       2   13    1        -0.8030435316E+00      0.1504931421E+01
          0                 2           2             4   13     1       0.8626417873E-02       4   13    1         0.5004785637E+00      0.8834037302E+00
          0                 3           2             7   13     1      -0.1569711064E-02       7   13    1        -0.8632315803E-01      0.1134938988E+00
          0                 4           2             7   13     1       0.1245625251E-03       7   13    1         0.6912787056E-02      0.8971858860E-02
          0                 5           1             7   13     1      -0.8675103313E-05       7   13    1        -0.4858426137E-03      0.6552619970E-03

    ------------------------------------------------
       NWT REQUIRED            5 OUTER ITERATIONS 
       AND A TOTAL OF          9 INNER ITERATIONS.
    ------------------------------------------------

 NO OUTPUT CONTROL FOR STRESS PERIOD   18   TIME STEP   13
 
 SOLVING FOR HEAD 
                                                   Max.-Head-Change                         Max.-Flux-Residual
  Residual-Control   Outer-Iter.   Inner-Iter.     Column Row Layer    Maximum-Head-Change  Column Row Layer    Maximum-Flux-Residual          L2-NORM 
          0                 1           2             2   13     1      -0.1375660081E-01       2   13    1        -0.7737340212E+00      0.1451898738E+01
          0                 2           2             4   13     1       0.8589236817E-02       4   13    1         0.4983159013E+00      0.8798348414E+00
          0                 3           2             7   13     1      -0.1569260236E-02       7   13    1        -0.8629853681E-01      0.1132649002E+00
          0                 4           2             7   13     1       0.1245264189E-03       7   13    1         0.6910796795E-02      0.8925163307E-02
          0                 5           1             7   13     1      -0.8672744368E-05       7   13    1        -0.4857105546E-03      0.6184283486E-03

    ------------------------------------------------
       NWT REQUIRED            5 OUTER ITERATIONS 
       AND A TOTAL OF          9 INNER ITERATIONS.
    ------------------------------------------------

 NO OUTPUT CONTROL FOR STRESS PERIOD   18   TIME STEP   14
 
 SOLVING FOR HEAD 
                                                   Max.-Head-Change                         Max.-Flux-Residual
  Residual-Control   Outer-Iter.   Inner-Iter.     Column Row Layer    Maximum-Head-Change  Column Row Layer    Maximum-Flux-Residual          L2-NORM 
          0                 1           2             2   13     1      -0.9299077502E-02       2   13    1        -0.5236288429E+00      0.1008578786E+01
          0                 2           2             4   13     1       0.4086645360E-02       4   13    1         0.2369985783E+00      0.4224598569E+00
          0                 3           2             4   13     1      -0.3605911395E-03       4   13    1        -0.2110657375E-01      0.3686805600E-01
          0                 4           1             4   13     1       0.2829225073E-04       4   13    1         0.1671464182E-02      0.2855204231E-02

    ------------------------------------------------
       NWT REQUIRED            4 OUTER ITERATIONS 
       AND A TOTAL OF          7 INNER ITERATIONS.
    ------------------------------------------------

 NO OUTPUT CONTROL FOR STRESS PERIOD   18   TIME STEP   15
 
 SOLVING FOR HEAD 
                                                   Max.-Head-Change                         Max.-Flux-Residual
  Residual-Control   Outer-Iter.   Inner-Iter.     Column Row Layer    Maximum-Head-Change  Column Row Layer    Maximum-Flux-Residual          L2-NORM 
          0                 1           2             2   13     1      -0.5573057846E-02       2   13    1        -0.3139573740E+00      0.6539694312E+00
          0                 2           2             2   13     1       0.5306484461E-03       2   13    1         0.3016311448E-01      0.6086270174E-01
          0                 3           1             1   13     1      -0.4545290050E-04       2   13    1        -0.2596497191E-02      0.5275554560E-02

    ------------------------------------------------
       NWT REQUIRED            3 OUTER ITERATIONS 
       AND A TOTAL OF          5 INNER ITERATIONS.
    ------------------------------------------------

 NO OUTPUT CONTROL FOR STRESS PERIOD   18   TIME STEP   16
 
 SOLVING FOR HEAD 
                                                   Max.-Head-Change                         Max.-Flux-Residual
  Residual-Control   Outer-Iter.   Inner-Iter.     Column Row Layer    Maximum-Head-Change  Column Row Layer    Maximum-Flux-Residual          L2-NORM 
          0                 1           2             1   13     1      -0.5247461077E-02       2   13    1        -0.2904725673E+00      0.6160291314E+00
          0                 2           2             1   13     1       0.5042367893E-03       2   13    1         0.2791368300E-01      0.5700387760E-01
          0                 3           1             1   13     1      -0.4346689852E-04       1   13    1        -0.2415266612E-02      0.4935512478E-02

    ------------------------------------------------
       NWT REQUIRED            3 OUTER ITERATIONS 
       AND A TOTAL OF          5 INNER ITERATIONS.
    ------------------------------------------------

 NO OUTPUT CONTROL FOR STRESS PERIOD   18   TIME STEP   17
 
 SOLVING FOR HEAD 
                                                   Max.-Head-Change                         Max.-Flux-Residual
  Residual-Control   Outer-Iter.   Inner-Iter.     Column Row Layer    Maximum-Head-Change  Column Row Layer    Maximum-Flux-Residual          L2-NORM 
          0                 1           2             1   13     1      -0.5006232258E-02       1   13    1        -0.2731597972E+00      0.5815109649E+00
          0                 2           2             1   13     1       0.4815165982E-03       1   13    1         0.2651599359E-01      0.5347077351E-01
          0                 3           1             1   13     1      -0.4155551904E-04       1   13    1        -0.2309510176E-02      0.4624282401E-02

    ------------------------------------------------
       NWT REQUIRED            3 OUTER ITERATIONS 
       AND A TOTAL OF          5 INNER ITERATIONS.
    ------------------------------------------------

 NO OUTPUT CONTROL FOR STRESS PERIOD   18   TIME STEP   18
 
 SOLVING FOR HEAD 
                                                   Max.-Head-Change                         Max.-Flux-Residual
  Residual-Control   Outer-Iter.   Inner-Iter.     Column Row Layer    Maximum-Head-Change  Column Row Layer    Maximum-Flux-Residual          L2-NORM 
          0                 1           2             1   13     1      -0.4774837110E-02       1   13    1        -0.2605809118E+00      0.5501177551E+00
          0                 2           2             1   13     1       0.4596597304E-03       1   13    1         0.2531701291E-01      0.5022384675E-01
          0                 3           1             1   13     1      -0.3969961261E-04       1   13    1        -0.2206773462E-02      0.4336536937E-02

    ------------------------------------------------
       NWT REQUIRED            3 OUTER ITERATIONS 
       AND A TOTAL OF          5 INNER ITERATIONS.
    ------------------------------------------------

 NO OUTPUT CONTROL FOR STRESS PERIOD   18   TIME STEP   19
 
 SOLVING FOR HEAD 
                                                   Max.-Head-Change                         Max.-Flux-Residual
  Residual-Control   Outer-Iter.   Inner-Iter.     Column Row Layer    Maximum-Head-Change  Column Row Layer    Maximum-Flux-Residual          L2-NORM 
          0                 1           2             1   13     1      -0.4552979060E-02       1   13    1        -0.2485162642E+00      0.5215790380E+00
          0                 2           2             1   13     1       0.4386387896E-03       1   13    1         0.2416345070E-01      0.4725464244E-01
          0                 3           1             1   13     1      -0.3789164695E-04       1   13    1        -0.2106633734E-02      0.4073651915E-02

    ------------------------------------------------
       NWT REQUIRED            3 OUTER ITERATIONS 
       AND A TOTAL OF          5 INNER ITERATIONS.
    ------------------------------------------------

 NO OUTPUT CONTROL FOR STRESS PERIOD   18   TIME STEP   20
 
 SOLVING FOR HEAD 
                                                   Max.-Head-Change                         Max.-Flux-Residual
  Residual-Control   Outer-Iter.   Inner-Iter.     Column Row Layer    Maximum-Head-Change  Column Row Layer    Maximum-Flux-Residual          L2-NORM 
          0                 1           2             1   13     1      -0.4340389491E-02       1   13    1        -0.2369518100E+00      0.4956278970E+00
          0                 2           2             1   13     1       0.4185257284E-03       1   13    1         0.2305936093E-01      0.4452789896E-01
          0                 3           1             1   13     1      -0.3621976300E-04       1   13    1        -0.2014034477E-02      0.3824256598E-02

    ------------------------------------------------
       NWT REQUIRED            3 OUTER ITERATIONS 
       AND A TOTAL OF          5 INNER ITERATIONS.
    ------------------------------------------------

 NO OUTPUT CONTROL FOR STRESS PERIOD   18   TIME STEP   21
 
 SOLVING FOR HEAD 
                                                   Max.-Head-Change                         Max.-Flux-Residual
  Residual-Control   Outer-Iter.   Inner-Iter.     Column Row Layer    Maximum-Head-Change  Column Row Layer    Maximum-Flux-Residual          L2-NORM 
          0                 1           2             2   13     1      -0.8676248295E-02       2   13    1        -0.4882330674E+00      0.9461868348E+00
          0                 2           2             4   13     1       0.5788327272E-02       4   13    1         0.3357398683E+00      0.5981467875E+00
          0                 3           2             7   13     1      -0.1498067508E-02       7   13    1        -0.8241798058E-01      0.9574054327E-01
          0                 4           2             7   13     1       0.1097902073E-03       7   13    1         0.6095069887E-02      0.7148948694E-02
          0                 5           1             7   13     1      -0.7641531321E-05       7   13    1        -0.4281034098E-03      0.4960884342E-03

    ------------------------------------------------
       NWT REQUIRED            5 OUTER ITERATIONS 
       AND A TOTAL OF          9 INNER ITERATIONS.
    ------------------------------------------------

 NO OUTPUT CONTROL FOR STRESS PERIOD   18   TIME STEP   22
 
 SOLVING FOR HEAD 
                                                   Max.-Head-Change                         Max.-Flux-Residual
  Residual-Control   Outer-Iter.   Inner-Iter.     Column Row Layer    Maximum-Head-Change  Column Row Layer    Maximum-Flux-Residual          L2-NORM 
          0                 1           2             2   13     1      -0.1055631947E-01       2   13    1        -0.5936607767E+00      0.1131269382E+01
          0                 2           2             4   13     1       0.8205135052E-02       4   13    1         0.4759958764E+00      0.8400640227E+00
          0                 3           2             7   13     1      -0.1502556496E-02       7   13    1        -0.8262904226E-01      0.1082481008E+00
          0                 4           1             7   13     1       0.1052186583E-03       7   13    1         0.5838125499E-02      0.7936259004E-02
          0                 5           1             7   13     1      -0.7337763475E-05       7   13    1        -0.4108660735E-03      0.5449037499E-03

    ------------------------------------------------
       NWT REQUIRED            5 OUTER ITERATIONS 
       AND A TOTAL OF          8 INNER ITERATIONS.
    ------------------------------------------------

 NO OUTPUT CONTROL FOR STRESS PERIOD   18   TIME STEP   23
 
 SOLVING FOR HEAD 
                                                   Max.-Head-Change                         Max.-Flux-Residual
  Residual-Control   Outer-Iter.   Inner-Iter.     Column Row Layer    Maximum-Head-Change  Column Row Layer    Maximum-Flux-Residual          L2-NORM 
          0                 1           2             2   13     1      -0.1030549861E-01       2   13    1        -0.5795526592E+00      0.1106362228E+01
          0                 2           2             4   13     1       0.8190388085E-02       4   13    1         0.4751423655E+00      0.8383929098E+00
          0                 3           2             7   13     1      -0.1498335512E-02       7   13    1        -0.8239673058E-01      0.1079733634E+00
          0                 4           1             7   13     1       0.1008333571E-03       7   13    1         0.5594434988E-02      0.7752091130E-02
          0                 5           1             7   13     1      -0.7023359636E-05       7   13    1        -0.3932338157E-03      0.5339859126E-03

    ------------------------------------------------
       NWT REQUIRED            5 OUTER ITERATIONS 
       AND A TOTAL OF          8 INNER ITERATIONS.
    ------------------------------------------------

 NO OUTPUT CONTROL FOR STRESS PERIOD   18   TIME STEP   24
 
 SOLVING FOR HEAD 
                                                   Max.-Head-Change                         Max.-Flux-Residual
  Residual-Control   Outer-Iter.   Inner-Iter.     Column Row Layer    Maximum-Head-Change  Column Row Layer    Maximum-Flux-Residual          L2-NORM 
          0                 1           2             2   13     1      -0.1007425654E-01       2   13    1        -0.5665473993E+00      0.1083364628E+01
          0                 2           2             4   13     1       0.8177096028E-02       4   13    1         0.4743737073E+00      0.8368779817E+00
          0                 3           2             7   13     1      -0.1494512713E-02       7   13    1        -0.8218633889E-01      0.1077240080E+00
          0                 4           1             7   13     1       0.9685836356E-04       7   13    1         0.5373547461E-02      0.7586282592E-02

    ------------------------------------------------
       NWT REQUIRED            4 OUTER ITERATIONS 
       AND A TOTAL OF          7 INNER ITERATIONS.
    ------------------------------------------------

 NO OUTPUT CONTROL FOR STRESS PERIOD   18   TIME STEP   25
 
 SOLVING FOR HEAD 
                                                   Max.-Head-Change                         Max.-Flux-Residual
  Residual-Control   Outer-Iter.   Inner-Iter.     Column Row Layer    Maximum-Head-Change  Column Row Layer    Maximum-Flux-Residual          L2-NORM 
          0                 1           2             2   13     1      -0.9859495252E-02       2   13    1        -0.5544697389E+00      0.1062089782E+01
          0                 2           2             4   13     1       0.8165074213E-02       4   13    1         0.4736790124E+00      0.8354385060E+00
          0                 3           2             7   13     1      -0.1490725172E-02       7   13    1        -0.8197788282E-01      0.1074794408E+00
          0                 4           1             7   13     1       0.9292255864E-04       7   13    1         0.5154835717E-02      0.7426179507E-02

    ------------------------------------------------
       NWT REQUIRED            4 OUTER ITERATIONS 
       AND A TOTAL OF          7 INNER ITERATIONS.
    ------------------------------------------------

 NO OUTPUT CONTROL FOR STRESS PERIOD   18   TIME STEP   26
 
 SOLVING FOR HEAD 
                                                   Max.-Head-Change                         Max.-Flux-Residual
  Residual-Control   Outer-Iter.   Inner-Iter.     Column Row Layer    Maximum-Head-Change  Column Row Layer    Maximum-Flux-Residual          L2-NORM 
          0                 1           2             2   13     1      -0.9661590242E-02       2   13    1        -0.5433415195E+00      0.1042433347E+01
          0                 2           2             4   13     1       0.8154256457E-02       4   13    1         0.4730543890E+00      0.8341349688E+00
          0                 3           2             7   13     1      -0.1487317357E-02       7   13    1        -0.8179033546E-01      0.1072599902E+00
          0                 4           1             7   13     1       0.8937047547E-04       7   13    1         0.4957448403E-02      0.7283959885E-02

    ------------------------------------------------
       NWT REQUIRED            4 OUTER ITERATIONS 
       AND A TOTAL OF          7 INNER ITERATIONS.
    ------------------------------------------------

 NO OUTPUT CONTROL FOR STRESS PERIOD   18   TIME STEP   27
 
 SOLVING FOR HEAD 
                                                   Max.-Head-Change                         Max.-Flux-Residual
  Residual-Control   Outer-Iter.   Inner-Iter.     Column Row Layer    Maximum-Head-Change  Column Row Layer    Maximum-Flux-Residual          L2-NORM 
          0                 1           2             2   13     1      -0.9478539480E-02       2   13    1        -0.5330496199E+00      0.1024241727E+01
          0                 2           2             4   13     1       0.8144486357E-02       4   13    1         0.4724907184E+00      0.8329307406E+00
          0                 3           2             7   13     1      -0.1484271440E-02       7   13    1        -0.8162270960E-01      0.1070602355E+00
          0                 4           1             7   13     1       0.8618484027E-04       7   13    1         0.4780423496E-02      0.7157751517E-02

    ------------------------------------------------
       NWT REQUIRED            4 OUTER ITERATIONS 
       AND A TOTAL OF          7 INNER ITERATIONS.
    ------------------------------------------------

 NO OUTPUT CONTROL FOR STRESS PERIOD   18   TIME STEP   28
 
 SOLVING FOR HEAD 
                                                   Max.-Head-Change                         Max.-Flux-Residual
  Residual-Control   Outer-Iter.   Inner-Iter.     Column Row Layer    Maximum-Head-Change  Column Row Layer    Maximum-Flux-Residual          L2-NORM 
          0                 1           2             1   13     1      -0.3528182092E-02       1   13    1        -0.1925778974E+00      0.4270289490E+00
          0                 2           2             2   13     1       0.1091362552E-02       2   13    1         0.6211015621E-01      0.1168108851E+00
          0                 3           1             4   13     1      -0.9458378645E-04       4   13    1        -0.5527239640E-02      0.1016786196E-01

    ------------------------------------------------
       NWT REQUIRED            3 OUTER ITERATIONS 
       AND A TOTAL OF          5 INNER ITERATIONS.
    ------------------------------------------------

 NO OUTPUT CONTROL FOR STRESS PERIOD   18   TIME STEP   29
 
 SOLVING FOR HEAD 
                                                   Max.-Head-Change                         Max.-Flux-Residual
  Residual-Control   Outer-Iter.   Inner-Iter.     Column Row Layer    Maximum-Head-Change  Column Row Layer    Maximum-Flux-Residual          L2-NORM 
          0                 1           2             4   13     1       0.6460479502E-02       4   13    1         0.3739011607E+00      0.7118099997E+00
          0                 2           2             4   13     1      -0.6339160163E-03       4   13    1        -0.3703122688E-01      0.6195687672E-01
          0                 3           1             4   13     1       0.5592528298E-04       4   13    1         0.3297558801E-02      0.5261811290E-02

    ------------------------------------------------
       NWT REQUIRED            3 OUTER ITERATIONS 
       AND A TOTAL OF          5 INNER ITERATIONS.
    ------------------------------------------------

 NO OUTPUT CONTROL FOR STRESS PERIOD   18   TIME STEP   30



 STREAM LISTING     PERIOD     18   STEP       30

 LAYER ROW COL. STREAM  RCH.  FLOW INTO     FLOW TO   FLOW OUT OF   OVRLND.     DIRECT     STREAM       STREAM     STREAM     STREAM   STREAMBED  STREAMBED
                SEG.NO.  NO.  STRM. RCH.    AQUIFER    STRM. RCH.    RUNOFF     PRECIP       ET          HEAD       DEPTH      WIDTH   CONDCTNC.   GRADIENT

   1    1    1     1     1    5.4945E+01  3.5407E-01   5.4591E+01  0.000E+00  0.000E+00  0.000E+00  1.09451E+03  1.462E+00  1.763E+01  7.934E-02  1.487E+00
   1    2    2     1     2    5.4591E+01  5.4824E-01   5.4043E+01  0.000E+00  0.000E+00  0.000E+00  1.08952E+03  1.457E+00  1.757E+01  1.230E-01  1.486E+00
   1    3    3     1     3    5.4043E+01  4.6747E-01   5.3575E+01  0.000E+00  0.000E+00  0.000E+00  1.08387E+03  1.450E+00  1.751E+01  1.050E-01  1.483E+00
   1    3    4     1     4    5.3575E+01  4.3039E-01   5.3145E+01  0.000E+00  0.000E+00  0.000E+00  1.07885E+03  1.444E+00  1.745E+01  9.684E-02  1.481E+00
   1    4    5     2     1    5.1145E+01  3.7840E-01   5.0767E+01  0.000E+00  0.000E+00  0.000E+00  1.07379E+03  1.851E+00  1.200E+01  7.800E-02  1.617E+00
   1    5    6     2     2    5.0767E+01  2.9064E-01   5.0476E+01  0.000E+00  0.000E+00  0.000E+00  1.06835E+03  1.844E+00  1.200E+01  6.000E-02  1.615E+00
   1    6    6     2     3    5.0476E+01  2.9025E-01   5.0186E+01  0.000E+00  0.000E+00  0.000E+00  1.06363E+03  1.838E+00  1.200E+01  6.000E-02  1.613E+00
   1    7    6     2     4    5.0186E+01  2.8987E-01   4.9896E+01  0.000E+00  0.000E+00  0.000E+00  1.05891E+03  1.831E+00  1.200E+01  6.000E-02  1.610E+00
   1    8    6     2     5    4.9896E+01  2.8949E-01   4.9606E+01  0.000E+00  0.000E+00  0.000E+00  1.05418E+03  1.825E+00  1.200E+01  6.000E-02  1.608E+00
   1    3    5     3     1    2.0000E+00  2.8252E-01   1.7175E+00  0.000E+00  0.000E+00  0.000E+00  1.07555E+03  1.909E+00  9.636E+00  7.227E-02  1.955E+00
   1    3    6     3     2    1.7175E+00  2.4905E-01   1.4684E+00  0.000E+00  0.000E+00  0.000E+00  1.07264E+03  1.727E+00  8.909E+00  6.682E-02  1.864E+00
   1    3    7     3     3    1.4684E+00  1.9718E-01   1.2712E+00  0.000E+00  0.000E+00  0.000E+00  1.06987E+03  1.555E+00  8.218E+00  5.547E-02  1.777E+00
   1    4    8     3     4    1.2712E+00  2.2567E-01   1.0456E+00  0.000E+00  0.000E+00  0.000E+00  1.06682E+03  1.364E+00  7.455E+00  6.709E-02  1.682E+00
   1    5    8     3     5    1.0456E+00  1.5790E-01   8.8768E-01  0.000E+00  0.000E+00  0.000E+00  1.06362E+03  1.164E+00  6.655E+00  4.991E-02  1.582E+00
   1    6    8     3     6    8.8768E-01  5.5980E-02   8.3170E-01  0.000E+00  0.000E+00  0.000E+00  1.06158E+03  1.036E+00  6.145E+00  1.844E-02  1.518E+00
   1    5   10     4     1    1.0000E+01  9.0919E-02   9.9091E+00  0.000E+00  0.000E+00  0.000E+00  1.07836E+03  6.368E-01  1.000E+01  2.500E-02  1.212E+00
   1    5    9     4     2    9.9091E+00  1.8158E-01   9.7275E+00  0.000E+00  0.000E+00  0.000E+00  1.07154E+03  6.315E-01  1.000E+01  5.000E-02  1.211E+00
   1    6    8     4     3    9.7275E+00  1.2689E-01   9.6006E+00  0.000E+00  0.000E+00  0.000E+00  1.06381E+03  6.256E-01  1.000E+01  3.500E-02  1.209E+00
   1    6    8     5     1    1.0432E+01  2.2686E-01   1.0205E+01  0.000E+00  0.000E+00  0.000E+00  1.05868E+03  6.790E-01  1.542E+01  6.166E-02  1.226E+00
   1    7    7     5     2    1.0205E+01  2.7894E-01   9.9265E+00  0.000E+00  0.000E+00  0.000E+00  1.05417E+03  6.732E-01  1.519E+01  7.594E-02  1.224E+00
   1    8    7     5     3    9.9265E+00  1.9221E-01   9.7343E+00  0.000E+00  0.000E+00  0.000E+00  1.04992E+03  6.676E-01  1.497E+01  5.241E-02  1.223E+00
   1    8    6     5     4    9.7343E+00  1.3577E-01   9.5985E+00  0.000E+00  0.000E+00  0.000E+00  1.04691E+03  6.637E-01  1.482E+01  3.706E-02  1.221E+00
   1    9    6     6     1    5.9205E+01  3.0271E-01   5.8902E+01  0.000E+00  0.000E+00  0.000E+00  1.04477E+03  2.045E+00  1.200E+01  6.000E-02  1.682E+00
   1   10    7     6     2    5.8902E+01  3.0233E-01   5.8600E+01  0.000E+00  0.000E+00  0.000E+00  1.04022E+03  2.039E+00  1.200E+01  6.000E-02  1.680E+00
   1   11    7     6     3    5.8600E+01  3.0195E-01   5.8298E+01  0.000E+00  0.000E+00  0.000E+00  1.03567E+03  2.033E+00  1.200E+01  6.000E-02  1.678E+00
   1   12    7     6     4    5.8298E+01  3.0157E-01   5.7996E+01  0.000E+00  0.000E+00  0.000E+00  1.03112E+03  2.026E+00  1.200E+01  6.000E-02  1.675E+00
   1   13    7     6     5    5.7996E+01  1.9353E-02   5.7977E+01  0.000E+00  0.000E+00  0.000E+00  1.02793E+03  2.023E+00  1.200E+01  2.400E-02  2.688E-01
   1   14    9     7     1    1.5000E+02  1.3398E+00   1.4866E+02  0.000E+00  0.000E+00  0.000E+00  1.03987E+03  2.288E+00  5.529E+01  5.593E-01  7.985E-01
   1   13    8     7     2    1.4866E+02  1.8289E+00   1.4683E+02  0.000E+00  0.000E+00  0.000E+00  1.03478E+03  2.279E+00  5.526E+01  6.148E-01  9.916E-01
   1   13    7     7     3    1.4683E+02  1.4321E+00   1.4540E+02  0.000E+00  0.000E+00  0.000E+00  1.02969E+03  2.271E+00  5.522E+01  5.585E-01  8.548E-01
   1   13    6     8     1    2.0338E+02  1.0235E+00   2.0235E+02  0.000E+00  0.000E+00  0.000E+00  1.02503E+03  3.154E+00  4.574E+01  4.661E-01  7.319E-01
   1   13    5     8     2    2.0235E+02  2.3380E-01   2.0212E+02  0.000E+00  0.000E+00  0.000E+00  1.01878E+03  3.151E+00  4.569E+01  4.656E-01  1.674E-01
   1   13    4     8     3    2.0212E+02 -2.0227E+00   2.0414E+02  0.000E+00  0.000E+00  0.000E+00  1.01253E+03  3.156E+00  4.576E+01  4.663E+00 -1.446E-01
   1   13    3     8     4    2.0414E+02 -3.2265E+00   2.0737E+02  0.000E+00  0.000E+00  0.000E+00  1.00630E+03  3.171E+00  4.598E+01  4.686E+00 -2.295E-01
   1   13    2     8     5    2.0737E+02 -2.1613E+00   2.0953E+02  0.000E+00  0.000E+00  0.000E+00  1.00006E+03  3.187E+00  4.621E+01  4.709E+00 -1.530E-01
   1   13    1     8     6    2.0953E+02 -1.6937E+00   2.1122E+02  0.000E+00  0.000E+00  0.000E+00  9.95073E+02  3.198E+00  4.637E+01  2.835E+00 -1.991E-01
   1    6    8     9     1    0.0000E+00  0.0000E+00   0.0000E+00  0.000E+00  0.000E+00  0.000E+00  1.07850E+03  0.000E+00  4.000E+00  0.000E+00  1.000E+00





UNSATURATED ZONE PACKAGE VOLUMETRIC BUDGET FOR  TIME STEP    30 STRESS PERIOD   18
  ------------------------------------------------------------------------------



     CUMULATIVE VOLUMES      L**3       RATES FOR THIS TIME STEP      L**3/T
     ------------------                 ------------------------

           IN:                                      IN:
           ---                                      ---
        INFILTRATION =    57425982.7537          INFILTRATION =       0.0000E+00

          OUT:                                     OUT:
          ----                                     ----
              UZF ET =    46897067.1700                UZF ET =           1.0010
        UZF RECHARGE =     2652823.2170          UZF RECHARGE =           0.0669

            IN - OUT =     7876092.3667              IN - OUT =          -1.0680

          STORAGE:                                 STORAGE:
          --------                                 --------
      STORAGE CHANGE =     7893909.7529        STORAGE CHANGE =          -1.0661

 PERCENT DISCREPANCY IS DIFFERENCE BETWEEN IN-OUT MINUS CHANGE IN STORAGE
 DIVIDED BY THE AVERAGE OF IN AND OUT TIMES 100

 PERCENT DISCREPANCY =          -0.01     PERCENT DISCREPANCY =          -0.18






1
  VOLUMETRIC BUDGET FOR ENTIRE MODEL AT END OF TIME STEP   30, STRESS PERIOD  18
  ------------------------------------------------------------------------------

     CUMULATIVE VOLUMES      L**3       RATES FOR THIS TIME STEP      L**3/T
     ------------------                 ------------------------

           IN:                                      IN:
           ---                                      ---
    AWU WELLS            =    11225853.0000      AWU WELLS            =           0.0000
    DIVERSION SEGMENTS   =    46126920.0000      DIVERSION SEGMENTS   =           0.0000
    GW IRRIGATION        =           0.0000      GW IRRIGATION        =           0.0000
    SW IRRIGATION        =           0.0000      SW IRRIGATION        =           0.0000
    EFFICIENCY FACTOR GW =           0.0000      EFFICIENCY FACTOR GW =           0.0000
    EFFICIENCY FACTOR SW =           0.0000      EFFICIENCY FACTOR SW =           0.0000

                TOTAL IN =    57352772.0000                  TOTAL IN =           0.0000

          OUT:                                     OUT:
          ----                                     ----
    AWU WELLS            =           0.0000      AWU WELLS            =           0.0000
    DIVERSION SEGMENTS   =           0.0000      DIVERSION SEGMENTS   =           0.0000
    GW IRRIGATION        =    11225853.0000      GW IRRIGATION        =           0.0000
    SW IRRIGATION        =    46126920.0000      SW IRRIGATION        =           0.0000
    EFFICIENCY FACTOR GW =           0.0000      EFFICIENCY FACTOR GW =           0.0000
    EFFICIENCY FACTOR SW =           0.0000      EFFICIENCY FACTOR SW =           0.0000

               TOTAL OUT =    57352772.0000                 TOTAL OUT =           0.0000

                IN - OUT =           0.0000                  IN - OUT =           0.0000

     PERCENT DISCREPANCY =           0.00         PERCENT DISCREPANCY =           0.00



1
  VOLUMETRIC BUDGET FOR ENTIRE MODEL AT END OF TIME STEP   30, STRESS PERIOD  18
  ------------------------------------------------------------------------------

     CUMULATIVE VOLUMES      L**3       RATES FOR THIS TIME STEP      L**3/T
     ------------------                 ------------------------

           IN:                                      IN:
           ---                                      ---
             STORAGE     =    67558056.0000               STORAGE     =           0.2642
       CONSTANT HEAD     =           0.0000         CONSTANT HEAD     =           0.0000
     HEAD DEP BOUNDS     =    12797909.0000       HEAD DEP BOUNDS     =           0.2860
      STREAM LEAKAGE     =   529821408.0000        STREAM LEAKAGE     =          12.8262
        UZF RECHARGE     =     2652822.5000          UZF RECHARGE     =       6.6918E-02
               GW ET     =           0.0000                 GW ET     =           0.0000
     SURFACE LEAKAGE     =           0.0000       SURFACE LEAKAGE     =           0.0000
    AWU WELLS            =           0.0000      AWU WELLS            =           0.0000

                TOTAL IN =   612830208.0000                  TOTAL IN =          13.4434

          OUT:                                     OUT:
          ----                                     ----
             STORAGE     =    89104880.0000               STORAGE     =           3.0051
       CONSTANT HEAD     =           0.0000         CONSTANT HEAD     =           0.0000
     HEAD DEP BOUNDS     =    12896143.0000       HEAD DEP BOUNDS     =           0.2915
      STREAM LEAKAGE     =   440898688.0000        STREAM LEAKAGE     =           9.1042
        UZF RECHARGE     =           0.0000          UZF RECHARGE     =           0.0000
               GW ET     =    58711304.0000                 GW ET     =           1.0437
     SURFACE LEAKAGE     =           0.0000       SURFACE LEAKAGE     =           0.0000
    AWU WELLS            =    11225853.0000      AWU WELLS            =           0.0000

               TOTAL OUT =   612836864.0000                 TOTAL OUT =          13.4445

                IN - OUT =       -6656.0000                  IN - OUT =      -1.1082E-03

     PERCENT DISCREPANCY =          -0.00         PERCENT DISCREPANCY =          -0.01






         TIME SUMMARY AT END OF TIME STEP   30 IN STRESS PERIOD   18
                    SECONDS     MINUTES      HOURS       DAYS        YEARS
                    -----------------------------------------------------------
   TIME STEP LENGTH  87600.      1460.0      24.333      1.0139     2.77588E-03
 STRESS PERIOD TIME 2.62800E+06  43800.      730.00      30.417     8.32763E-02
         TOTAL TIME 4.47624E+07 7.46040E+05  12434.      518.08      1.4184    
1
1
                            STRESS PERIOD NO.   19, LENGTH =   2628000.    
                            -----------------------------------------------

                              NUMBER OF TIME STEPS =    30

                               MULTIPLIER FOR DELT =     1.000

                            INITIAL TIME STEP SIZE =   87600.00    

 REUSING NON-PARAMETER GHB CELLS FROM LAST STRESS PERIOD

      2 GHB CELLS

 REUSING STREAM SEGMENT DATA FROM LAST STRESS PERIOD



            AREAL INFILTRATION RATE
 READING ON UNIT   19 WITH FORMAT: (10F4.0)            

            1           2           3           4           5           6           7           8           9          10
 ........................................................................................................................
   1    0.000       0.000       0.000       0.000       0.000       0.000       0.000       0.000       0.000       0.000    
   2    0.000       0.000       0.000       0.000       0.000       0.000       0.000       0.000       0.000       0.000    
   3    0.000       0.000       0.000       0.000       0.000       0.000       0.000       0.000       0.000       0.000    
   4    0.000       0.000       0.000       0.000       0.000       0.000       0.000       0.000       0.000       0.000    
   5    0.000       0.000       0.000       0.000       0.000       0.000       0.000       0.000       0.000       0.000    
   6    0.000       0.000       0.000       0.000       0.000       0.000       0.000       0.000       0.000       0.000    
   7    0.000       0.000       0.000       0.000       0.000       0.000       0.000       0.000       0.000       0.000    
   8    0.000       0.000       0.000       0.000       0.000       0.000       0.000       0.000       0.000       0.000    
   9    0.000       0.000       0.000       0.000       0.000       0.000       0.000       0.000       0.000       0.000    
  10    0.000       0.000       0.000       0.000       0.000       0.000       0.000       0.000       0.000       0.000    
  11    0.000       0.000       0.000       0.000       0.000       0.000       0.000       0.000       0.000       0.000    
  12    0.000       0.000       0.000       0.000       0.000       0.000       0.000       0.000       0.000       0.000    
  13    0.000       0.000       0.000       0.000       0.000       0.000       0.000       0.000       0.000       0.000    
  14    0.000       0.000       0.000       0.000       0.000       0.000       0.000       0.000       0.000       0.000    
  15    0.000       0.000       0.000       0.000       0.000       0.000       0.000       0.000       0.000       0.000    

                  ET RATE =  3.000000E-08

 USING ET EXTINCTION DEPTH FROM PREVIOUS STRESS PERIOD. CURRENT PERIOD IS:      19

 USING EXTINCTION WATER CONTENT FROM PREVIOUS STRESS PERIOD. CURRENT PERIOD IS:      19

 PROCESSING AWU STRESS PERIOD DATA

 READING AWU STRESS PERIOD DATA

 READING IRRIGATION STREAM

 READING IRRIGATION WELL

 READING SUPPLEMENTAL WEL

 END PROCESSING AWU STRESS PERIOD DATA OPTIONS
 
 SOLVING FOR HEAD 
                                                   Max.-Head-Change                         Max.-Flux-Residual
  Residual-Control   Outer-Iter.   Inner-Iter.     Column Row Layer    Maximum-Head-Change  Column Row Layer    Maximum-Flux-Residual          L2-NORM 
          0                 1           2             5   13     1      -0.6813642482E-02       5   13    1        -0.3734601538E+00      0.7062879090E+00
          0                 2           2             5   13     1       0.6750040042E-03       5   13    1         0.3733783382E-01      0.5969574741E-01
          0                 3           1             5   13     1      -0.6018316820E-04       5   13    1        -0.3359590464E-02      0.5133329812E-02

    ------------------------------------------------
       NWT REQUIRED            3 OUTER ITERATIONS 
       AND A TOTAL OF          5 INNER ITERATIONS.
    ------------------------------------------------

 OUTPUT CONTROL FOR STRESS PERIOD   19   TIME STEP    1
    PRINT BUDGET
    SAVE BUDGET
 UBDSV1 SAVING "         STORAGE" ON UNIT 102 AT TIME STEP     1, STRESS PERIOD  19
 UBDSV2 SAVING "   CONSTANT HEAD" ON UNIT 102 AT TIME STEP     1, STRESS PERIOD  19
 UBDSV1 SAVING "FLOW RIGHT FACE " ON UNIT 102 AT TIME STEP     1, STRESS PERIOD  19
 UBDSV1 SAVING "FLOW FRONT FACE " ON UNIT 102 AT TIME STEP     1, STRESS PERIOD  19

  HEAD DEP BOUNDS   PERIOD   19   STEP     1
 BOUNDARY      1   LAYER   1   ROW    13   COL     1   RATE   -0.291317    
 BOUNDARY      2   LAYER   1   ROW    14   COL     9   RATE    0.286031    



 STREAM LISTING     PERIOD     19   STEP        1

 LAYER ROW COL. STREAM  RCH.  FLOW INTO     FLOW TO   FLOW OUT OF   OVRLND.     DIRECT     STREAM       STREAM     STREAM     STREAM   STREAMBED  STREAMBED
                SEG.NO.  NO.  STRM. RCH.    AQUIFER    STRM. RCH.    RUNOFF     PRECIP       ET          HEAD       DEPTH      WIDTH   CONDCTNC.   GRADIENT

   1    1    1     1     1    6.3000E+01  3.8236E-01   6.2618E+01  0.000E+00  0.000E+00  0.000E+00  1.09461E+03  1.562E+00  1.863E+01  8.382E-02  1.521E+00
   1    2    2     1     2    6.2618E+01  5.9218E-01   6.2025E+01  0.000E+00  0.000E+00  0.000E+00  1.08961E+03  1.556E+00  1.857E+01  1.300E-01  1.519E+00
   1    3    3     1     3    6.2025E+01  5.0506E-01   6.1520E+01  0.000E+00  0.000E+00  0.000E+00  1.08397E+03  1.549E+00  1.850E+01  1.110E-01  1.516E+00
   1    3    4     1     4    6.1520E+01  4.6510E-01   6.1055E+01  0.000E+00  0.000E+00  0.000E+00  1.07895E+03  1.543E+00  1.845E+01  1.024E-01  1.514E+00
   1    4    5     2     1    5.9055E+01  3.9145E-01   5.8664E+01  0.000E+00  0.000E+00  0.000E+00  1.07395E+03  2.019E+00  1.200E+01  7.800E-02  1.673E+00
   1    5    6     2     2    5.8664E+01  3.0068E-01   5.8363E+01  0.000E+00  0.000E+00  0.000E+00  1.06852E+03  2.011E+00  1.200E+01  6.000E-02  1.670E+00
   1    6    6     2     3    5.8363E+01  3.0031E-01   5.8063E+01  0.000E+00  0.000E+00  0.000E+00  1.06380E+03  2.005E+00  1.200E+01  6.000E-02  1.668E+00
   1    7    6     2     4    5.8063E+01  2.9994E-01   5.7763E+01  0.000E+00  0.000E+00  0.000E+00  1.05907E+03  1.999E+00  1.200E+01  6.000E-02  1.666E+00
   1    8    6     2     5    5.7763E+01  2.9957E-01   5.7463E+01  0.000E+00  0.000E+00  0.000E+00  1.05435E+03  1.993E+00  1.200E+01  6.000E-02  1.664E+00
   1    3    5     3     1    2.0000E+00  2.8252E-01   1.7175E+00  0.000E+00  0.000E+00  0.000E+00  1.07555E+03  1.909E+00  9.636E+00  7.227E-02  1.955E+00
   1    3    6     3     2    1.7175E+00  2.4905E-01   1.4684E+00  0.000E+00  0.000E+00  0.000E+00  1.07264E+03  1.727E+00  8.909E+00  6.682E-02  1.864E+00
   1    3    7     3     3    1.4684E+00  1.9718E-01   1.2712E+00  0.000E+00  0.000E+00  0.000E+00  1.06987E+03  1.555E+00  8.218E+00  5.547E-02  1.777E+00
   1    4    8     3     4    1.2712E+00  2.2567E-01   1.0456E+00  0.000E+00  0.000E+00  0.000E+00  1.06682E+03  1.364E+00  7.455E+00  6.709E-02  1.682E+00
   1    5    8     3     5    1.0456E+00  1.5790E-01   8.8768E-01  0.000E+00  0.000E+00  0.000E+00  1.06362E+03  1.164E+00  6.655E+00  4.991E-02  1.582E+00
   1    6    8     3     6    8.8768E-01  5.5980E-02   8.3170E-01  0.000E+00  0.000E+00  0.000E+00  1.06158E+03  1.036E+00  6.145E+00  1.844E-02  1.518E+00
   1    5   10     4     1    1.0000E+01  9.0919E-02   9.9091E+00  0.000E+00  0.000E+00  0.000E+00  1.07836E+03  6.368E-01  1.000E+01  2.500E-02  1.212E+00
   1    5    9     4     2    9.9091E+00  1.8158E-01   9.7275E+00  0.000E+00  0.000E+00  0.000E+00  1.07154E+03  6.315E-01  1.000E+01  5.000E-02  1.211E+00
   1    6    8     4     3    9.7275E+00  1.2689E-01   9.6006E+00  0.000E+00  0.000E+00  0.000E+00  1.06381E+03  6.256E-01  1.000E+01  3.500E-02  1.209E+00
   1    6    8     5     1    1.0432E+01  2.2686E-01   1.0205E+01  0.000E+00  0.000E+00  0.000E+00  1.05868E+03  6.790E-01  1.542E+01  6.166E-02  1.226E+00
   1    7    7     5     2    1.0205E+01  2.7894E-01   9.9265E+00  0.000E+00  0.000E+00  0.000E+00  1.05417E+03  6.732E-01  1.519E+01  7.594E-02  1.224E+00
   1    8    7     5     3    9.9265E+00  1.9221E-01   9.7343E+00  0.000E+00  0.000E+00  0.000E+00  1.04992E+03  6.676E-01  1.497E+01  5.241E-02  1.223E+00
   1    8    6     5     4    9.7343E+00  1.3577E-01   9.5985E+00  0.000E+00  0.000E+00  0.000E+00  1.04691E+03  6.637E-01  1.482E+01  3.706E-02  1.221E+00
   1    9    6     6     1    6.7062E+01  3.1225E-01   6.6750E+01  0.000E+00  0.000E+00  0.000E+00  1.04493E+03  2.204E+00  1.200E+01  6.000E-02  1.735E+00
   1   10    7     6     2    6.6750E+01  3.1188E-01   6.6438E+01  0.000E+00  0.000E+00  0.000E+00  1.04038E+03  2.198E+00  1.200E+01  6.000E-02  1.733E+00
   1   11    7     6     3    6.6438E+01  3.1151E-01   6.6126E+01  0.000E+00  0.000E+00  0.000E+00  1.03583E+03  2.192E+00  1.200E+01  6.000E-02  1.731E+00
   1   12    7     6     4    6.6126E+01  3.1114E-01   6.5815E+01  0.000E+00  0.000E+00  0.000E+00  1.03128E+03  2.186E+00  1.200E+01  6.000E-02  1.729E+00
   1   13    7     6     5    6.5815E+01  2.3198E-02   6.5792E+01  0.000E+00  0.000E+00  0.000E+00  1.02809E+03  2.182E+00  1.200E+01  2.400E-02  3.222E-01
   1   14    9     7     1    1.5000E+02  1.3398E+00   1.4866E+02  0.000E+00  0.000E+00  0.000E+00  1.03987E+03  2.288E+00  5.529E+01  5.593E-01  7.985E-01
   1   13    8     7     2    1.4866E+02  1.8288E+00   1.4683E+02  0.000E+00  0.000E+00  0.000E+00  1.03478E+03  2.279E+00  5.526E+01  6.148E-01  9.916E-01
   1   13    7     7     3    1.4683E+02  1.4325E+00   1.4540E+02  0.000E+00  0.000E+00  0.000E+00  1.02969E+03  2.271E+00  5.522E+01  5.585E-01  8.550E-01
   1   13    6     8     1    2.1119E+02  1.0598E+00   2.1013E+02  0.000E+00  0.000E+00  0.000E+00  1.02507E+03  3.199E+00  4.639E+01  4.727E-01  7.473E-01
   1   13    5     8     2    2.1013E+02  2.6122E-01   2.0987E+02  0.000E+00  0.000E+00  0.000E+00  1.01882E+03  3.196E+00  4.634E+01  4.722E-01  1.844E-01
   1   13    4     8     3    2.0987E+02 -1.8471E+00   2.1172E+02  0.000E+00  0.000E+00  0.000E+00  1.01258E+03  3.200E+00  4.640E+01  4.729E+00 -1.302E-01
   1   13    3     8     4    2.1172E+02 -3.0665E+00   2.1478E+02  0.000E+00  0.000E+00  0.000E+00  1.00634E+03  3.214E+00  4.660E+01  4.749E+00 -2.152E-01
   1   13    2     8     5    2.1478E+02 -2.0104E+00   2.1679E+02  0.000E+00  0.000E+00  0.000E+00  1.00010E+03  3.228E+00  4.681E+01  4.770E+00 -1.405E-01
   1   13    1     8     6    2.1679E+02 -1.5870E+00   2.1838E+02  0.000E+00  0.000E+00  0.000E+00  9.95113E+02  3.238E+00  4.696E+01  2.871E+00 -1.843E-01
   1    6    8     9     1    0.0000E+00  0.0000E+00   0.0000E+00  0.000E+00  0.000E+00  0.000E+00  1.07850E+03  0.000E+00  4.000E+00  0.000E+00  1.000E+00



 UBDSV3 SAVING "           GW ET" ON UNIT  61 AT TIME STEP     1, STRESS PERIOD  19
 UBDSV3 SAVING "    UZF RECHARGE" ON UNIT  61 AT TIME STEP     1, STRESS PERIOD  19
 UBDSV3 SAVING " SURFACE LEAKAGE" ON UNIT  61 AT TIME STEP     1, STRESS PERIOD  19
 UBDSV3 SAVING "       HORT+DUNN" ON UNIT  61 AT TIME STEP     1, STRESS PERIOD  19
 UBDSV3 SAVING "  STORAGE CHANGE" ON UNIT  61 AT TIME STEP     1, STRESS PERIOD  19


UNSATURATED ZONE PACKAGE VOLUMETRIC BUDGET FOR  TIME STEP     1 STRESS PERIOD   19
  ------------------------------------------------------------------------------



     CUMULATIVE VOLUMES      L**3       RATES FOR THIS TIME STEP      L**3/T
     ------------------                 ------------------------

           IN:                                      IN:
           ---                                      ---
        INFILTRATION =    57425982.7537          INFILTRATION =       0.0000E+00

          OUT:                                     OUT:
          ----                                     ----
              UZF ET =    47160069.3887                UZF ET =           3.0023
        UZF RECHARGE =     2659525.3465          UZF RECHARGE =           0.0765

            IN - OUT =     7606388.0185              IN - OUT =          -3.0788

          STORAGE:                                 STORAGE:
          --------                                 --------
      STORAGE CHANGE =     7624206.7155        STORAGE CHANGE =          -3.0788

 PERCENT DISCREPANCY IS DIFFERENCE BETWEEN IN-OUT MINUS CHANGE IN STORAGE
 DIVIDED BY THE AVERAGE OF IN AND OUT TIMES 100

 PERCENT DISCREPANCY =          -0.01     PERCENT DISCREPANCY =          -0.00






 

 AWU WELLS                PERIOD   19   STEP   1
 AWU WELL      1   LAYER   1   ROW     6   COL     4   RATE     0.00000    
 AWU WELL      2   LAYER   1   ROW     6   COL     5   RATE     0.00000    
 AWU WELL      3   LAYER   1   ROW     7   COL     4   RATE     0.00000    
 AWU WELL      4   LAYER   1   ROW     7   COL     5   RATE     0.00000    
 AWU WELL      5   LAYER   1   ROW     8   COL     4   RATE     0.00000    
 AWU WELL      6   LAYER   1   ROW     8   COL     5   RATE     0.00000    
 
 

 DIVERSION SEGMENTS       PERIOD   19   STEP   1
 SEGMENT      9   RATE     0.00000    
 
 

 SW IRRIGATION            PERIOD   19   STEP   1
 SEGMENT      9   ROW     6   COL     4   RATE     0.00000    
 SEGMENT      9   ROW     6   COL     5   RATE     0.00000    
 SEGMENT      9   ROW     7   COL     4   RATE     0.00000    
 SEGMENT      9   ROW     7   COL     5   RATE     0.00000    
 SEGMENT      9   ROW     8   COL     4   RATE     0.00000    
 SEGMENT      9   ROW     8   COL     5   RATE     0.00000    
 
 

 GW IRRIGATION            PERIOD   19   STEP   1
 AWU WELL      1   ROW     6   COL     4   RATE     0.00000    
 AWU WELL      2   ROW     6   COL     5   RATE     0.00000    
 AWU WELL      3   ROW     7   COL     4   RATE     0.00000    
 AWU WELL      4   ROW     7   COL     5   RATE     0.00000    
 AWU WELL      5   ROW     8   COL     4   RATE     0.00000    
 AWU WELL      6   ROW     8   COL     5   RATE     0.00000    
 
1
  VOLUMETRIC BUDGET FOR ENTIRE MODEL AT END OF TIME STEP    1, STRESS PERIOD  19
  ------------------------------------------------------------------------------

     CUMULATIVE VOLUMES      L**3       RATES FOR THIS TIME STEP      L**3/T
     ------------------                 ------------------------

           IN:                                      IN:
           ---                                      ---
    AWU WELLS            =    11225853.0000      AWU WELLS            =           0.0000
    DIVERSION SEGMENTS   =    46126920.0000      DIVERSION SEGMENTS   =           0.0000
    GW IRRIGATION        =           0.0000      GW IRRIGATION        =           0.0000
    SW IRRIGATION        =           0.0000      SW IRRIGATION        =           0.0000
    EFFICIENCY FACTOR GW =           0.0000      EFFICIENCY FACTOR GW =           0.0000
    EFFICIENCY FACTOR SW =           0.0000      EFFICIENCY FACTOR SW =           0.0000

                TOTAL IN =    57352772.0000                  TOTAL IN =           0.0000

          OUT:                                     OUT:
          ----                                     ----
    AWU WELLS            =           0.0000      AWU WELLS            =           0.0000
    DIVERSION SEGMENTS   =           0.0000      DIVERSION SEGMENTS   =           0.0000
    GW IRRIGATION        =    11225853.0000      GW IRRIGATION        =           0.0000
    SW IRRIGATION        =    46126920.0000      SW IRRIGATION        =           0.0000
    EFFICIENCY FACTOR GW =           0.0000      EFFICIENCY FACTOR GW =           0.0000
    EFFICIENCY FACTOR SW =           0.0000      EFFICIENCY FACTOR SW =           0.0000

               TOTAL OUT =    57352772.0000                 TOTAL OUT =           0.0000

                IN - OUT =           0.0000                  IN - OUT =           0.0000

     PERCENT DISCREPANCY =           0.00         PERCENT DISCREPANCY =           0.00



1
  VOLUMETRIC BUDGET FOR ENTIRE MODEL AT END OF TIME STEP    1, STRESS PERIOD  19
  ------------------------------------------------------------------------------

     CUMULATIVE VOLUMES      L**3       RATES FOR THIS TIME STEP      L**3/T
     ------------------                 ------------------------

           IN:                                      IN:
           ---                                      ---
             STORAGE     =    67639672.0000               STORAGE     =           0.9317
       CONSTANT HEAD     =           0.0000         CONSTANT HEAD     =           0.0000
     HEAD DEP BOUNDS     =    12822965.0000       HEAD DEP BOUNDS     =           0.2860
      STREAM LEAKAGE     =   530971616.0000        STREAM LEAKAGE     =          13.1302
        UZF RECHARGE     =     2659524.7500          UZF RECHARGE     =       7.6508E-02
               GW ET     =           0.0000                 GW ET     =           0.0000
     SURFACE LEAKAGE     =           0.0000       SURFACE LEAKAGE     =           0.0000
    AWU WELLS            =           0.0000      AWU WELLS            =           0.0000

                TOTAL IN =   614093760.0000                  TOTAL IN =          14.4244

          OUT:                                     OUT:
          ----                                     ----
             STORAGE     =    89323192.0000               STORAGE     =           2.4921
       CONSTANT HEAD     =           0.0000         CONSTANT HEAD     =           0.0000
     HEAD DEP BOUNDS     =    12921662.0000       HEAD DEP BOUNDS     =           0.2913
      STREAM LEAKAGE     =   441644256.0000        STREAM LEAKAGE     =           8.5111
        UZF RECHARGE     =           0.0000          UZF RECHARGE     =           0.0000
               GW ET     =    58985492.0000                 GW ET     =           3.1300
     SURFACE LEAKAGE     =           0.0000       SURFACE LEAKAGE     =           0.0000
    AWU WELLS            =    11225853.0000      AWU WELLS            =           0.0000

               TOTAL OUT =   614100416.0000                 TOTAL OUT =          14.4245

                IN - OUT =       -6656.0000                  IN - OUT =      -1.2398E-04

     PERCENT DISCREPANCY =          -0.00         PERCENT DISCREPANCY =          -0.00






         TIME SUMMARY AT END OF TIME STEP    1 IN STRESS PERIOD   19
                    SECONDS     MINUTES      HOURS       DAYS        YEARS
                    -----------------------------------------------------------
   TIME STEP LENGTH  87600.      1460.0      24.333      1.0139     2.77588E-03
 STRESS PERIOD TIME  87600.      1460.0      24.333      1.0139     2.77588E-03
         TOTAL TIME 4.48500E+07 7.47500E+05  12458.      519.10      1.4212    
1
 
 SOLVING FOR HEAD 
                                                   Max.-Head-Change                         Max.-Flux-Residual
  Residual-Control   Outer-Iter.   Inner-Iter.     Column Row Layer    Maximum-Head-Change  Column Row Layer    Maximum-Flux-Residual          L2-NORM 
          0                 1           2             5   13     1      -0.6466157974E-02       5   13    1        -0.3541964866E+00      0.6790554589E+00
          0                 2           2             5   13     1       0.6405864548E-03       5   13    1         0.3541178809E-01      0.5651587351E-01
          0                 3           1             5   13     1      -0.5711508248E-04       5   13    1        -0.3186322701E-02      0.4837824089E-02

    ------------------------------------------------
       NWT REQUIRED            3 OUTER ITERATIONS 
       AND A TOTAL OF          5 INNER ITERATIONS.
    ------------------------------------------------

 NO OUTPUT CONTROL FOR STRESS PERIOD   19   TIME STEP    2
 
 SOLVING FOR HEAD 
                                                   Max.-Head-Change                         Max.-Flux-Residual
  Residual-Control   Outer-Iter.   Inner-Iter.     Column Row Layer    Maximum-Head-Change  Column Row Layer    Maximum-Flux-Residual          L2-NORM 
          0                 1           2             5   13     1      -0.6140067471E-02       5   13    1        -0.3361337825E+00      0.6548647838E+00
          0                 2           2             5   13     1       0.6082768361E-03       5   13    1         0.3360575265E-01      0.5186953037E-01
          0                 3           1             5   13     1      -0.5423353036E-04       5   13    1        -0.3023781568E-02      0.4348616346E-02

    ------------------------------------------------
       NWT REQUIRED            3 OUTER ITERATIONS 
       AND A TOTAL OF          5 INNER ITERATIONS.
    ------------------------------------------------

 NO OUTPUT CONTROL FOR STRESS PERIOD   19   TIME STEP    3
 
 SOLVING FOR HEAD 
                                                   Max.-Head-Change                         Max.-Flux-Residual
  Residual-Control   Outer-Iter.   Inner-Iter.     Column Row Layer    Maximum-Head-Change  Column Row Layer    Maximum-Flux-Residual          L2-NORM 
          0                 1           2             5   13     1      -0.5833906176E-02       5   13    1        -0.3191881765E+00      0.6333402000E+00
          0                 2           2             5   13     1       0.5779421878E-03       5   13    1         0.3191142910E-01      0.4910882557E-01
          0                 3           1             5   13     1      -0.5152802827E-04       5   13    1        -0.2871295829E-02      0.4090470982E-02

    ------------------------------------------------
       NWT REQUIRED            3 OUTER ITERATIONS 
       AND A TOTAL OF          5 INNER ITERATIONS.
    ------------------------------------------------

 NO OUTPUT CONTROL FOR STRESS PERIOD   19   TIME STEP    4
 
 SOLVING FOR HEAD 
                                                   Max.-Head-Change                         Max.-Flux-Residual
  Residual-Control   Outer-Iter.   Inner-Iter.     Column Row Layer    Maximum-Head-Change  Column Row Layer    Maximum-Flux-Residual          L2-NORM 
          0                 1           2             4    7     1      -0.1930450505E-01       4    8    1        -0.1011682093E+01      0.2543497694E+01
          0                 2           2             4    7     1       0.1912881156E-02       4    8    1         0.1011671268E+00      0.2511978000E+00
          0                 3           2             4    7     1      -0.1705961801E-03       4    8    1        -0.9105053184E-02      0.2254714086E-01
          0                 4           1             4    7     1       0.1354077685E-04       4    8    1         0.7293148669E-03      0.1805145638E-02

    ------------------------------------------------
       NWT REQUIRED            4 OUTER ITERATIONS 
       AND A TOTAL OF          7 INNER ITERATIONS.
    ------------------------------------------------

 NO OUTPUT CONTROL FOR STRESS PERIOD   19   TIME STEP    5
 
 SOLVING FOR HEAD 
                                                   Max.-Head-Change                         Max.-Flux-Residual
  Residual-Control   Outer-Iter.   Inner-Iter.     Column Row Layer    Maximum-Head-Change  Column Row Layer    Maximum-Flux-Residual          L2-NORM 
          0                 1           2             1   13     1      -0.7590138124E-02       4   13    1        -0.4314082477E+00      0.9756724069E+00
          0                 2           2             4   13     1       0.6153293727E-02       4   13    1         0.3583155059E+00      0.6247620763E+00
          0                 3           2             4   13     1      -0.5424162293E-03       4   13    1        -0.3187999376E-01      0.5438790079E-01
          0                 4           1             4   13     1       0.4251219315E-04       4   13    1         0.2521911547E-02      0.4201271178E-02

    ------------------------------------------------
       NWT REQUIRED            4 OUTER ITERATIONS 
       AND A TOTAL OF          7 INNER ITERATIONS.
    ------------------------------------------------

 NO OUTPUT CONTROL FOR STRESS PERIOD   19   TIME STEP    6
 
 SOLVING FOR HEAD 
                                                   Max.-Head-Change                         Max.-Flux-Residual
  Residual-Control   Outer-Iter.   Inner-Iter.     Column Row Layer    Maximum-Head-Change  Column Row Layer    Maximum-Flux-Residual          L2-NORM 
          0                 1           2             4   13     1      -0.7410111117E-02       4   13    1        -0.4235671989E+00      0.9574941011E+00
          0                 2           2             4   13     1       0.6166107002E-02       4   13    1         0.3590813048E+00      0.6259944795E+00
          0                 3           2             4   13     1      -0.5435415663E-03       4   13    1        -0.3194790442E-01      0.5449355072E-01
          0                 4           1             4   13     1       0.4259402222E-04       4   13    1         0.2526906470E-02      0.4209226114E-02

    ------------------------------------------------
       NWT REQUIRED            4 OUTER ITERATIONS 
       AND A TOTAL OF          7 INNER ITERATIONS.
    ------------------------------------------------

 NO OUTPUT CONTROL FOR STRESS PERIOD   19   TIME STEP    7
 
 SOLVING FOR HEAD 
                                                   Max.-Head-Change                         Max.-Flux-Residual
  Residual-Control   Outer-Iter.   Inner-Iter.     Column Row Layer    Maximum-Head-Change  Column Row Layer    Maximum-Flux-Residual          L2-NORM 
          0                 1           2             4   13     1      -0.7284460019E-02       4   13    1        -0.4164832949E+00      0.9408243628E+00
          0                 2           2             4   13     1       0.6281575022E-02       4   13    1         0.3658426997E+00      0.6376039093E+00
          0                 3           2             4   13     1      -0.5537158125E-03       4   13    1        -0.3254925426E-01      0.5550175982E-01
          0                 4           1             4   13     1       0.4338407719E-04       4   13    1         0.2574042630E-02      0.4286102203E-02

    ------------------------------------------------
       NWT REQUIRED            4 OUTER ITERATIONS 
       AND A TOTAL OF          7 INNER ITERATIONS.
    ------------------------------------------------

 NO OUTPUT CONTROL FOR STRESS PERIOD   19   TIME STEP    8
 
 SOLVING FOR HEAD 
                                                   Max.-Head-Change                         Max.-Flux-Residual
  Residual-Control   Outer-Iter.   Inner-Iter.     Column Row Layer    Maximum-Head-Change  Column Row Layer    Maximum-Flux-Residual          L2-NORM 
          0                 1           2             4   13     1      -0.7181072747E-02       4   13    1        -0.4106773546E+00      0.9261455710E+00
          0                 2           2             4   13     1       0.4689654368E-02       4   13    1         0.2729108316E+00      0.4765724645E+00
          0                 3           2             4   13     1      -0.4134041020E-03       4   13    1        -0.2428177879E-01      0.4148843700E-01
          0                 4           1             4   13     1       0.3238270699E-04       4   13    1         0.1919758846E-02      0.3204426708E-02

    ------------------------------------------------
       NWT REQUIRED            4 OUTER ITERATIONS 
       AND A TOTAL OF          7 INNER ITERATIONS.
    ------------------------------------------------

 NO OUTPUT CONTROL FOR STRESS PERIOD   19   TIME STEP    9
 
 SOLVING FOR HEAD 
                                                   Max.-Head-Change                         Max.-Flux-Residual
  Residual-Control   Outer-Iter.   Inner-Iter.     Column Row Layer    Maximum-Head-Change  Column Row Layer    Maximum-Flux-Residual          L2-NORM 
          0                 1           2             4    7     1      -0.1293911179E-01       4    7    1        -0.6769553269E+00      0.1860036905E+01
          0                 2           2             4    7     1       0.1282151884E-02       4    7    1         0.6769534980E-01      0.1811832828E+00
          0                 3           2             4    7     1      -0.1143459172E-03       4    7    1        -0.6092584037E-02      0.1615332893E-01
          0                 4           1             4    7     1       0.9076008637E-05       4    7    1         0.4880160895E-03      0.1286830578E-02

    ------------------------------------------------
       NWT REQUIRED            4 OUTER ITERATIONS 
       AND A TOTAL OF          7 INNER ITERATIONS.
    ------------------------------------------------

 NO OUTPUT CONTROL FOR STRESS PERIOD   19   TIME STEP   10
 
 SOLVING FOR HEAD 
                                                   Max.-Head-Change                         Max.-Flux-Residual
  Residual-Control   Outer-Iter.   Inner-Iter.     Column Row Layer    Maximum-Head-Change  Column Row Layer    Maximum-Flux-Residual          L2-NORM 
          0                 1           2             1   13     1      -0.6314435986E-02       4   13    1        -0.3605351245E+00      0.8615617910E+00
          0                 2           2             4   13     1       0.1623014897E-02       4   13    1         0.9414431567E-01      0.1704488029E+00
          0                 3           2             4   13     1      -0.1430278598E-03       4   13    1        -0.8373447980E-02      0.1479494619E-01
          0                 4           1             4   13     1       0.1119540414E-04       4   13    1         0.6615143557E-03      0.1143275312E-02

    ------------------------------------------------
       NWT REQUIRED            4 OUTER ITERATIONS 
       AND A TOTAL OF          7 INNER ITERATIONS.
    ------------------------------------------------

 NO OUTPUT CONTROL FOR STRESS PERIOD   19   TIME STEP   11
 
 SOLVING FOR HEAD 
                                                   Max.-Head-Change                         Max.-Flux-Residual
  Residual-Control   Outer-Iter.   Inner-Iter.     Column Row Layer    Maximum-Head-Change  Column Row Layer    Maximum-Flux-Residual          L2-NORM 
          0                 1           2             1   13     1      -0.5337408288E-02       1   13    1        -0.2925697723E+00      0.7395817743E+00
          0                 2           2             4   13     1       0.1499847042E-02       4   13    1         0.8701397057E-01      0.1590549628E+00
          0                 3           2             4   13     1      -0.1321656513E-03       4   13    1        -0.7738777834E-02      0.1379356022E-01
          0                 4           1             4   13     1       0.1034525792E-04       4   13    1         0.6113760228E-03      0.1066102580E-02

    ------------------------------------------------
       NWT REQUIRED            4 OUTER ITERATIONS 
       AND A TOTAL OF          7 INNER ITERATIONS.
    ------------------------------------------------

 NO OUTPUT CONTROL FOR STRESS PERIOD   19   TIME STEP   12
 
 SOLVING FOR HEAD 
                                                   Max.-Head-Change                         Max.-Flux-Residual
  Residual-Control   Outer-Iter.   Inner-Iter.     Column Row Layer    Maximum-Head-Change  Column Row Layer    Maximum-Flux-Residual          L2-NORM 
          0                 1           2             2    2     1       0.4495307483E-02       2    2    1         0.2345047841E+00      0.5775127233E+00
          0                 2           2             5   13     1       0.3814998013E-03       5   13    1         0.2114277845E-01      0.4316559263E-01
          0                 3           1             5   13     1      -0.3401428839E-04       5   13    1        -0.1902280556E-02      0.3521843587E-02

    ------------------------------------------------
       NWT REQUIRED            3 OUTER ITERATIONS 
       AND A TOTAL OF          5 INNER ITERATIONS.
    ------------------------------------------------

 NO OUTPUT CONTROL FOR STRESS PERIOD   19   TIME STEP   13
 
 SOLVING FOR HEAD 
                                                   Max.-Head-Change                         Max.-Flux-Residual
  Residual-Control   Outer-Iter.   Inner-Iter.     Column Row Layer    Maximum-Head-Change  Column Row Layer    Maximum-Flux-Residual          L2-NORM 
          0                 1           2             2    2     1       0.4473571449E-02       2    2    1         0.2333618950E+00      0.5596706087E+00
          0                 2           2             5   13     1       0.3614451017E-03       5   13    1         0.2001261911E-01      0.4090678342E-01
          0                 3           1             5   13     1      -0.3222652871E-04       5   13    1        -0.1800618612E-02      0.3303905692E-02

    ------------------------------------------------
       NWT REQUIRED            3 OUTER ITERATIONS 
       AND A TOTAL OF          5 INNER ITERATIONS.
    ------------------------------------------------

 NO OUTPUT CONTROL FOR STRESS PERIOD   19   TIME STEP   14
 
 SOLVING FOR HEAD 
                                                   Max.-Head-Change                         Max.-Flux-Residual
  Residual-Control   Outer-Iter.   Inner-Iter.     Column Row Layer    Maximum-Head-Change  Column Row Layer    Maximum-Flux-Residual          L2-NORM 
          0                 1           2             2    2     1       0.4452136852E-02       2    2    1         0.2322348759E+00      0.5441600001E+00
          0                 2           2             5   13     1       0.3427688283E-03       5   13    1         0.1896134587E-01      0.3890864677E-01
          0                 3           1             5   13     1      -0.3056140428E-04       5   13    1        -0.1706035499E-02      0.3109834931E-02

    ------------------------------------------------
       NWT REQUIRED            3 OUTER ITERATIONS 
       AND A TOTAL OF          5 INNER ITERATIONS.
    ------------------------------------------------

 NO OUTPUT CONTROL FOR STRESS PERIOD   19   TIME STEP   15
 
 SOLVING FOR HEAD 
                                                   Max.-Head-Change                         Max.-Flux-Residual
  Residual-Control   Outer-Iter.   Inner-Iter.     Column Row Layer    Maximum-Head-Change  Column Row Layer    Maximum-Flux-Residual          L2-NORM 
          0                 1           2             2    2     1       0.4430998379E-02       2    2    1         0.2311234860E+00      0.5306673477E+00
          0                 2           2             5   13     1       0.3253286804E-03       5   13    1         0.1798079761E-01      0.3714200596E-01
          0                 3           1             5   13     1      -0.2900433402E-04       5   13    1        -0.1617713850E-02      0.2936997704E-02

    ------------------------------------------------
       NWT REQUIRED            3 OUTER ITERATIONS 
       AND A TOTAL OF          5 INNER ITERATIONS.
    ------------------------------------------------

 NO OUTPUT CONTROL FOR STRESS PERIOD   19   TIME STEP   16
 
 SOLVING FOR HEAD 
                                                   Max.-Head-Change                         Max.-Flux-Residual
  Residual-Control   Outer-Iter.   Inner-Iter.     Column Row Layer    Maximum-Head-Change  Column Row Layer    Maximum-Flux-Residual          L2-NORM 
          0                 1           2             2    2     1       0.4410151491E-02       2    2    1         0.2300274454E+00      0.5189197927E+00
          0                 2           2             5   13     1       0.3052181884E-03       5   13    1         0.1682184513E-01      0.3547269155E-01
          0                 3           1             5   13     1      -0.2721111582E-04       5   13    1        -0.1513441761E-02      0.2771362466E-02

    ------------------------------------------------
       NWT REQUIRED            3 OUTER ITERATIONS 
       AND A TOTAL OF          5 INNER ITERATIONS.
    ------------------------------------------------

 NO OUTPUT CONTROL FOR STRESS PERIOD   19   TIME STEP   17
 
 SOLVING FOR HEAD 
                                                   Max.-Head-Change                         Max.-Flux-Residual
  Residual-Control   Outer-Iter.   Inner-Iter.     Column Row Layer    Maximum-Head-Change  Column Row Layer    Maximum-Flux-Residual          L2-NORM 
          0                 1           2             2    2     1       0.4389591433E-02       2    2    1         0.2289465235E+00      0.5087320004E+00
          0                 2           2             5   13     1       0.2947503931E-03       5   13    1         0.1623319238E-01      0.3421017513E-01
          0                 3           1             5   13     1      -0.2627966551E-04       5   13    1        -0.1460570940E-02      0.2645269642E-02

    ------------------------------------------------
       NWT REQUIRED            3 OUTER ITERATIONS 
       AND A TOTAL OF          5 INNER ITERATIONS.
    ------------------------------------------------

 NO OUTPUT CONTROL FOR STRESS PERIOD   19   TIME STEP   18
 
 SOLVING FOR HEAD 
                                                   Max.-Head-Change                         Max.-Flux-Residual
  Residual-Control   Outer-Iter.   Inner-Iter.     Column Row Layer    Maximum-Head-Change  Column Row Layer    Maximum-Flux-Residual          L2-NORM 
          0                 1           2             4    7     1      -0.5295345092E-02       4    7    1        -0.2772840316E+00      0.8198101839E+00
          0                 2           2             4    7     1       0.5247275291E-03       4    7    1         0.2772836994E-01      0.7281462339E-01
          0                 3           1             4    7     1      -0.4679688743E-04       4    7    1        -0.2495553928E-02      0.6356439538E-02

    ------------------------------------------------
       NWT REQUIRED            3 OUTER ITERATIONS 
       AND A TOTAL OF          5 INNER ITERATIONS.
    ------------------------------------------------

 NO OUTPUT CONTROL FOR STRESS PERIOD   19   TIME STEP   19
 
 SOLVING FOR HEAD 
                                                   Max.-Head-Change                         Max.-Flux-Residual
  Residual-Control   Outer-Iter.   Inner-Iter.     Column Row Layer    Maximum-Head-Change  Column Row Layer    Maximum-Flux-Residual          L2-NORM 
          0                 1           2             4   13     1      -0.6757984469E-02       4   13    1        -0.3876259890E+00      0.8386247546E+00
          0                 2           2             4   13     1       0.5561320603E-02       4   13    1         0.3239241063E+00      0.5626350620E+00
          0                 3           2             4   13     1      -0.4902366874E-03       4   13    1        -0.2882043325E-01      0.4897296364E-01
          0                 4           1             4   13     1       0.3840076042E-04       4   13    1         0.2278602736E-02      0.3780366423E-02

    ------------------------------------------------
       NWT REQUIRED            4 OUTER ITERATIONS 
       AND A TOTAL OF          7 INNER ITERATIONS.
    ------------------------------------------------

 NO OUTPUT CONTROL FOR STRESS PERIOD   19   TIME STEP   20
 
 SOLVING FOR HEAD 
                                                   Max.-Head-Change                         Max.-Flux-Residual
  Residual-Control   Outer-Iter.   Inner-Iter.     Column Row Layer    Maximum-Head-Change  Column Row Layer    Maximum-Flux-Residual          L2-NORM 
          0                 1           2             4   13     1      -0.6615661000E-02       4   13    1        -0.3794555933E+00      0.8262842312E+00
          0                 2           2             4   13     1       0.5682186082E-02       4   13    1         0.3309862002E+00      0.5749898262E+00
          0                 3           2             4   13     1      -0.5009187490E-03       4   13    1        -0.2945040584E-01      0.5004991103E-01
          0                 4           1             4   13     1       0.3924756582E-04       4   13    1         0.2328998495E-02      0.3865517715E-02

    ------------------------------------------------
       NWT REQUIRED            4 OUTER ITERATIONS 
       AND A TOTAL OF          7 INNER ITERATIONS.
    ------------------------------------------------

 NO OUTPUT CONTROL FOR STRESS PERIOD   19   TIME STEP   21
 
 SOLVING FOR HEAD 
                                                   Max.-Head-Change                         Max.-Flux-Residual
  Residual-Control   Outer-Iter.   Inner-Iter.     Column Row Layer    Maximum-Head-Change  Column Row Layer    Maximum-Flux-Residual          L2-NORM 
          0                 1           2             4   13     1      -0.6499862489E-02       4   13    1        -0.3728209270E+00      0.8156842715E+00
          0                 2           2             4   13     1       0.5793758496E-02       4   13    1         0.3375065783E+00      0.5863472105E+00
          0                 3           2             4   13     1      -0.5107451282E-03       4   13    1        -0.3003003279E-01      0.5103632260E-01
          0                 4           1             4   13     1       0.4001299931E-04       4   13    1         0.2374562874E-02      0.3940209126E-02

    ------------------------------------------------
       NWT REQUIRED            4 OUTER ITERATIONS 
       AND A TOTAL OF          7 INNER ITERATIONS.
    ------------------------------------------------

 NO OUTPUT CONTROL FOR STRESS PERIOD   19   TIME STEP   22
 
 SOLVING FOR HEAD 
                                                   Max.-Head-Change                         Max.-Flux-Residual
  Residual-Control   Outer-Iter.   Inner-Iter.     Column Row Layer    Maximum-Head-Change  Column Row Layer    Maximum-Flux-Residual          L2-NORM 
          0                 1           2             4   13     1      -0.6406645612E-02       4   13    1        -0.3674929452E+00      0.8065964526E+00
          0                 2           2             4   13     1       0.5896345227E-02       4   13    1         0.3435028977E+00      0.5967629582E+00
          0                 3           2             4   13     1      -0.5197796371E-03       4   13    1        -0.3056305091E-01      0.5192105815E-01
          0                 4           1             4   13     1       0.4073443906E-04       4   13    1         0.2417535990E-02      0.4008758786E-02

    ------------------------------------------------
       NWT REQUIRED            4 OUTER ITERATIONS 
       AND A TOTAL OF          7 INNER ITERATIONS.
    ------------------------------------------------

 NO OUTPUT CONTROL FOR STRESS PERIOD   19   TIME STEP   23
 
 SOLVING FOR HEAD 
                                                   Max.-Head-Change                         Max.-Flux-Residual
  Residual-Control   Outer-Iter.   Inner-Iter.     Column Row Layer    Maximum-Head-Change  Column Row Layer    Maximum-Flux-Residual          L2-NORM 
          0                 1           2             4   13     1      -0.6332684305E-02       4   13    1        -0.3632786891E+00      0.7988186588E+00
          0                 2           2             4   13     1       0.5965017228E-02       4   13    1         0.3475190446E+00      0.6036987630E+00
          0                 3           2             4   13     1      -0.5258457924E-03       4   13    1        -0.3092116363E-01      0.5252429040E-01
          0                 4           1             4   13     1       0.4120241311E-04       4   13    1         0.2445424541E-02      0.4054283573E-02

    ------------------------------------------------
       NWT REQUIRED            4 OUTER ITERATIONS 
       AND A TOTAL OF          7 INNER ITERATIONS.
    ------------------------------------------------

 NO OUTPUT CONTROL FOR STRESS PERIOD   19   TIME STEP   24
 
 SOLVING FOR HEAD 
                                                   Max.-Head-Change                         Max.-Flux-Residual
  Residual-Control   Outer-Iter.   Inner-Iter.     Column Row Layer    Maximum-Head-Change  Column Row Layer    Maximum-Flux-Residual          L2-NORM 
          0                 1           2             4   13     1      -0.6272581432E-02       4   13    1        -0.3598649256E+00      0.7920281588E+00
          0                 2           2             4   13     1       0.6029571002E-02       4   13    1         0.3512948242E+00      0.6101943765E+00
          0                 3           2             4   13     1      -0.5315233034E-03       4   13    1        -0.3125634269E-01      0.5308833260E-01
          0                 4           1             4   13     1       0.4169577036E-04       4   13    1         0.2474839936E-02      0.4100127432E-02

    ------------------------------------------------
       NWT REQUIRED            4 OUTER ITERATIONS 
       AND A TOTAL OF          7 INNER ITERATIONS.
    ------------------------------------------------

 NO OUTPUT CONTROL FOR STRESS PERIOD   19   TIME STEP   25
 
 SOLVING FOR HEAD 
                                                   Max.-Head-Change                         Max.-Flux-Residual
  Residual-Control   Outer-Iter.   Inner-Iter.     Column Row Layer    Maximum-Head-Change  Column Row Layer    Maximum-Flux-Residual          L2-NORM 
          0                 1           2             2    2     1       0.4234054292E-02       2    2    1         0.2207706531E+00      0.5395978429E+00
          0                 2           2             4   13     1       0.2157071134E-02       4   13    1         0.1255688565E+00      0.2205402620E+00
          0                 3           2             4   13     1      -0.1901001140E-03       4   13    1        -0.1116926833E-01      0.1914303354E-01
          0                 4           1             4   13     1       0.1488442573E-04       4   13    1         0.8826729818E-03      0.1477099332E-02

    ------------------------------------------------
       NWT REQUIRED            4 OUTER ITERATIONS 
       AND A TOTAL OF          7 INNER ITERATIONS.
    ------------------------------------------------

 NO OUTPUT CONTROL FOR STRESS PERIOD   19   TIME STEP   26
 
 SOLVING FOR HEAD 
                                                   Max.-Head-Change                         Max.-Flux-Residual
  Residual-Control   Outer-Iter.   Inner-Iter.     Column Row Layer    Maximum-Head-Change  Column Row Layer    Maximum-Flux-Residual          L2-NORM 
          0                 1           2             2    2     1       0.4215798592E-02       2    2    1         0.2198111663E+00      0.4919118479E+00
          0                 2           2             5   13     1       0.1995963366E-03       2   13    1        -0.1143735269E-01      0.3214936673E-01
          0                 3           1             5   13     1      -0.1779437848E-04       5   13    1        -0.9923045923E-03      0.2432493012E-02

    ------------------------------------------------
       NWT REQUIRED            3 OUTER ITERATIONS 
       AND A TOTAL OF          5 INNER ITERATIONS.
    ------------------------------------------------

 NO OUTPUT CONTROL FOR STRESS PERIOD   19   TIME STEP   27
 
 SOLVING FOR HEAD 
                                                   Max.-Head-Change                         Max.-Flux-Residual
  Residual-Control   Outer-Iter.   Inner-Iter.     Column Row Layer    Maximum-Head-Change  Column Row Layer    Maximum-Flux-Residual          L2-NORM 
          0                 1           2             2    2     1       0.4197699256E-02       2    2    1         0.2188599338E+00      0.4828215275E+00
          0                 2           2             5   13     1       0.1896731307E-03       2   13    1        -0.1047580054E-01      0.3087950061E-01
          0                 3           1             5   13     1      -0.1691188421E-04       5   13    1        -0.9420569438E-03      0.2303612211E-02

    ------------------------------------------------
       NWT REQUIRED            3 OUTER ITERATIONS 
       AND A TOTAL OF          5 INNER ITERATIONS.
    ------------------------------------------------

 NO OUTPUT CONTROL FOR STRESS PERIOD   19   TIME STEP   28
 
 SOLVING FOR HEAD 
                                                   Max.-Head-Change                         Max.-Flux-Residual
  Residual-Control   Outer-Iter.   Inner-Iter.     Column Row Layer    Maximum-Head-Change  Column Row Layer    Maximum-Flux-Residual          L2-NORM 
          0                 1           2             1    1     1       0.4084790014E-02       1    1    1         0.2122326839E+00      0.4563896806E+00
          0                 2           2             5   13     1       0.1874004251E-03       5   13    1         0.1029928369E-01      0.2788793981E-01
          0                 3           1             5   13     1      -0.1670671404E-04       5   13    1        -0.9265777380E-03      0.2016638382E-02

    ------------------------------------------------
       NWT REQUIRED            3 OUTER ITERATIONS 
       AND A TOTAL OF          5 INNER ITERATIONS.
    ------------------------------------------------

 NO OUTPUT CONTROL FOR STRESS PERIOD   19   TIME STEP   29
 
 SOLVING FOR HEAD 
                                                   Max.-Head-Change                         Max.-Flux-Residual
  Residual-Control   Outer-Iter.   Inner-Iter.     Column Row Layer    Maximum-Head-Change  Column Row Layer    Maximum-Flux-Residual          L2-NORM 
          0                 1           2             4   13     1      -0.1217916196E-01       4   13    1        -0.6994415354E+00      0.1248996647E+01
          0                 2           2             4   13     1       0.1194755127E-02       4   13    1         0.6925081358E-01      0.1202488926E+00
          0                 3           1             4   13     1      -0.1053800963E-03       4   13    1        -0.6164808711E-02      0.1048222507E-01
          0                 4           1             4   13     1       0.8272675942E-05       4   13    1         0.4884582086E-03      0.8129152102E-03

    ------------------------------------------------
       NWT REQUIRED            4 OUTER ITERATIONS 
       AND A TOTAL OF          6 INNER ITERATIONS.
    ------------------------------------------------

 NO OUTPUT CONTROL FOR STRESS PERIOD   19   TIME STEP   30



 STREAM LISTING     PERIOD     19   STEP       30

 LAYER ROW COL. STREAM  RCH.  FLOW INTO     FLOW TO   FLOW OUT OF   OVRLND.     DIRECT     STREAM       STREAM     STREAM     STREAM   STREAMBED  STREAMBED
                SEG.NO.  NO.  STRM. RCH.    AQUIFER    STRM. RCH.    RUNOFF     PRECIP       ET          HEAD       DEPTH      WIDTH   CONDCTNC.   GRADIENT

   1    1    1     1     1    2.8000E+01  2.5860E-01   2.7741E+01  0.000E+00  0.000E+00  0.000E+00  1.09427E+03  1.221E+00  1.361E+01  6.126E-02  1.407E+00
   1    2    2     1     2    2.7741E+01  4.0002E-01   2.7341E+01  0.000E+00  0.000E+00  0.000E+00  1.08928E+03  1.217E+00  1.355E+01  9.487E-02  1.406E+00
   1    3    3     1     3    2.7341E+01  3.4070E-01   2.7001E+01  0.000E+00  0.000E+00  0.000E+00  1.08363E+03  1.212E+00  1.348E+01  8.090E-02  1.404E+00
   1    3    4     1     4    2.7001E+01  3.1335E-01   2.6687E+01  0.000E+00  0.000E+00  0.000E+00  1.07861E+03  1.207E+00  1.342E+01  7.448E-02  1.402E+00
   1    4    5     2     1    2.4687E+01  3.2711E-01   2.4360E+01  0.000E+00  0.000E+00  0.000E+00  1.07313E+03  1.194E+00  1.200E+01  7.800E-02  1.398E+00
   1    5    6     2     2    2.4360E+01  2.5111E-01   2.4109E+01  0.000E+00  0.000E+00  0.000E+00  1.06769E+03  1.185E+00  1.200E+01  6.000E-02  1.395E+00
   1    6    6     2     3    2.4109E+01  2.5067E-01   2.3858E+01  0.000E+00  0.000E+00  0.000E+00  1.06297E+03  1.178E+00  1.200E+01  6.000E-02  1.393E+00
   1    7    6     2     4    2.3858E+01  2.5023E-01   2.3608E+01  0.000E+00  0.000E+00  0.000E+00  1.05825E+03  1.170E+00  1.200E+01  6.000E-02  1.390E+00
   1    8    6     2     5    2.3608E+01  2.4978E-01   2.3358E+01  0.000E+00  0.000E+00  0.000E+00  1.05352E+03  1.163E+00  1.200E+01  6.000E-02  1.388E+00
   1    3    5     3     1    2.0000E+00  2.8252E-01   1.7175E+00  0.000E+00  0.000E+00  0.000E+00  1.07555E+03  1.909E+00  9.636E+00  7.227E-02  1.955E+00
   1    3    6     3     2    1.7175E+00  2.4905E-01   1.4684E+00  0.000E+00  0.000E+00  0.000E+00  1.07264E+03  1.727E+00  8.909E+00  6.682E-02  1.864E+00
   1    3    7     3     3    1.4684E+00  1.9718E-01   1.2712E+00  0.000E+00  0.000E+00  0.000E+00  1.06987E+03  1.555E+00  8.218E+00  5.547E-02  1.777E+00
   1    4    8     3     4    1.2712E+00  2.2567E-01   1.0456E+00  0.000E+00  0.000E+00  0.000E+00  1.06682E+03  1.364E+00  7.455E+00  6.709E-02  1.682E+00
   1    5    8     3     5    1.0456E+00  1.5790E-01   8.8768E-01  0.000E+00  0.000E+00  0.000E+00  1.06362E+03  1.164E+00  6.655E+00  4.991E-02  1.582E+00
   1    6    8     3     6    8.8768E-01  5.5980E-02   8.3170E-01  0.000E+00  0.000E+00  0.000E+00  1.06158E+03  1.036E+00  6.145E+00  1.844E-02  1.518E+00
   1    5   10     4     1    1.0000E+01  9.0919E-02   9.9091E+00  0.000E+00  0.000E+00  0.000E+00  1.07836E+03  6.368E-01  1.000E+01  2.500E-02  1.212E+00
   1    5    9     4     2    9.9091E+00  1.8158E-01   9.7275E+00  0.000E+00  0.000E+00  0.000E+00  1.07154E+03  6.315E-01  1.000E+01  5.000E-02  1.211E+00
   1    6    8     4     3    9.7275E+00  1.2689E-01   9.6006E+00  0.000E+00  0.000E+00  0.000E+00  1.06381E+03  6.256E-01  1.000E+01  3.500E-02  1.209E+00
   1    6    8     5     1    1.0432E+01  2.2686E-01   1.0205E+01  0.000E+00  0.000E+00  0.000E+00  1.05868E+03  6.790E-01  1.542E+01  6.166E-02  1.226E+00
   1    7    7     5     2    1.0205E+01  2.7894E-01   9.9265E+00  0.000E+00  0.000E+00  0.000E+00  1.05417E+03  6.732E-01  1.519E+01  7.594E-02  1.224E+00
   1    8    7     5     3    9.9265E+00  1.9221E-01   9.7343E+00  0.000E+00  0.000E+00  0.000E+00  1.04992E+03  6.676E-01  1.497E+01  5.241E-02  1.223E+00
   1    8    6     5     4    9.7343E+00  1.3577E-01   9.5985E+00  0.000E+00  0.000E+00  0.000E+00  1.04691E+03  6.637E-01  1.482E+01  3.706E-02  1.221E+00
   1    9    6     6     1    3.2957E+01  2.6627E-01   3.2691E+01  0.000E+00  0.000E+00  0.000E+00  1.04417E+03  1.438E+00  1.200E+01  6.000E-02  1.479E+00
   1   10    7     6     2    3.2691E+01  2.6584E-01   3.2425E+01  0.000E+00  0.000E+00  0.000E+00  1.03961E+03  1.431E+00  1.200E+01  6.000E-02  1.477E+00
   1   11    7     6     3    3.2425E+01  2.6542E-01   3.2159E+01  0.000E+00  0.000E+00  0.000E+00  1.03506E+03  1.424E+00  1.200E+01  6.000E-02  1.475E+00
   1   12    7     6     4    3.2159E+01  2.6500E-01   3.1894E+01  0.000E+00  0.000E+00  0.000E+00  1.03051E+03  1.417E+00  1.200E+01  6.000E-02  1.472E+00
   1   13    7     6     5    3.1894E+01  5.1067E-03   3.1889E+01  0.000E+00  0.000E+00  0.000E+00  1.02732E+03  1.413E+00  1.200E+01  2.400E-02  7.093E-02
   1   14    9     7     1    1.5000E+02  1.3397E+00   1.4866E+02  0.000E+00  0.000E+00  0.000E+00  1.03987E+03  2.288E+00  5.529E+01  5.593E-01  7.985E-01
   1   13    8     7     2    1.4866E+02  1.8277E+00   1.4683E+02  0.000E+00  0.000E+00  0.000E+00  1.03478E+03  2.279E+00  5.526E+01  6.148E-01  9.910E-01
   1   13    7     7     3    1.4683E+02  1.4411E+00   1.4539E+02  0.000E+00  0.000E+00  0.000E+00  1.02969E+03  2.271E+00  5.522E+01  5.585E-01  8.602E-01
   1   13    6     8     1    1.7728E+02  9.1953E-01   1.7636E+02  0.000E+00  0.000E+00  0.000E+00  1.02487E+03  2.996E+00  4.344E+01  4.427E-01  6.924E-01
   1   13    5     8     2    1.7636E+02  2.0083E-01   1.7616E+02  0.000E+00  0.000E+00  0.000E+00  1.01862E+03  2.993E+00  4.339E+01  4.422E-01  1.514E-01
   1   13    4     8     3    1.7616E+02 -2.5034E+00   1.7866E+02  0.000E+00  0.000E+00  0.000E+00  1.01237E+03  3.000E+00  4.350E+01  4.433E+00 -1.883E-01
   1   13    3     8     4    1.7866E+02 -3.6482E+00   1.8231E+02  0.000E+00  0.000E+00  0.000E+00  1.00614E+03  3.019E+00  4.378E+01  4.461E+00 -2.726E-01
   1   13    2     8     5    1.8231E+02 -2.7759E+00   1.8509E+02  0.000E+00  0.000E+00  0.000E+00  9.99914E+02  3.039E+00  4.407E+01  4.491E+00 -2.060E-01
   1   13    1     8     6    1.8509E+02 -1.8037E+00   1.8689E+02  0.000E+00  0.000E+00  0.000E+00  9.94928E+02  3.053E+00  4.427E+01  2.707E+00 -2.221E-01
   1    6    8     9     1    0.0000E+00  0.0000E+00   0.0000E+00  0.000E+00  0.000E+00  0.000E+00  1.07850E+03  0.000E+00  4.000E+00  0.000E+00  1.000E+00





UNSATURATED ZONE PACKAGE VOLUMETRIC BUDGET FOR  TIME STEP    30 STRESS PERIOD   19
  ------------------------------------------------------------------------------



     CUMULATIVE VOLUMES      L**3       RATES FOR THIS TIME STEP      L**3/T
     ------------------                 ------------------------

           IN:                                      IN:
           ---                                      ---
        INFILTRATION =    70083062.1599          INFILTRATION =       0.0000E+00

          OUT:                                     OUT:
          ----                                     ----
              UZF ET =    51542453.8380                UZF ET =           2.0140
        UZF RECHARGE =     2864827.8288          UZF RECHARGE =           0.0464

            IN - OUT =    15675780.4932              IN - OUT =          -2.0604

          STORAGE:                                 STORAGE:
          --------                                 --------
      STORAGE CHANGE =    15697607.0474        STORAGE CHANGE =          -2.0604

 PERCENT DISCREPANCY IS DIFFERENCE BETWEEN IN-OUT MINUS CHANGE IN STORAGE
 DIVIDED BY THE AVERAGE OF IN AND OUT TIMES 100

 PERCENT DISCREPANCY =          -0.01     PERCENT DISCREPANCY =          -0.00






1
  VOLUMETRIC BUDGET FOR ENTIRE MODEL AT END OF TIME STEP   30, STRESS PERIOD  19
  ------------------------------------------------------------------------------

     CUMULATIVE VOLUMES      L**3       RATES FOR THIS TIME STEP      L**3/T
     ------------------                 ------------------------

           IN:                                      IN:
           ---                                      ---
    AWU WELLS            =    12296024.0000      AWU WELLS            =           0.0000
    DIVERSION SEGMENTS   =    57713828.0000      DIVERSION SEGMENTS   =           0.0000
    GW IRRIGATION        =           0.0000      GW IRRIGATION        =           0.0000
    SW IRRIGATION        =           0.0000      SW IRRIGATION        =           0.0000
    EFFICIENCY FACTOR GW =           0.0000      EFFICIENCY FACTOR GW =           0.0000
    EFFICIENCY FACTOR SW =           0.0000      EFFICIENCY FACTOR SW =           0.0000

                TOTAL IN =    70009856.0000                  TOTAL IN =           0.0000

          OUT:                                     OUT:
          ----                                     ----
    AWU WELLS            =           0.0000      AWU WELLS            =           0.0000
    DIVERSION SEGMENTS   =           0.0000      DIVERSION SEGMENTS   =           0.0000
    GW IRRIGATION        =    12296024.0000      GW IRRIGATION        =           0.0000
    SW IRRIGATION        =    57713828.0000      SW IRRIGATION        =           0.0000
    EFFICIENCY FACTOR GW =           0.0000      EFFICIENCY FACTOR GW =           0.0000
    EFFICIENCY FACTOR SW =           0.0000      EFFICIENCY FACTOR SW =           0.0000

               TOTAL OUT =    70009856.0000                 TOTAL OUT =           0.0000

                IN - OUT =           0.0000                  IN - OUT =           0.0000

     PERCENT DISCREPANCY =           0.00         PERCENT DISCREPANCY =           0.00



1
  VOLUMETRIC BUDGET FOR ENTIRE MODEL AT END OF TIME STEP   30, STRESS PERIOD  19
  ------------------------------------------------------------------------------

     CUMULATIVE VOLUMES      L**3       RATES FOR THIS TIME STEP      L**3/T
     ------------------                 ------------------------

           IN:                                      IN:
           ---                                      ---
             STORAGE     =    71053440.0000               STORAGE     =           3.1001
       CONSTANT HEAD     =           0.0000         CONSTANT HEAD     =           0.0000
     HEAD DEP BOUNDS     =    13549589.0000       HEAD DEP BOUNDS     =           0.2860
      STREAM LEAKAGE     =   564163264.0000        STREAM LEAKAGE     =          11.8396
        UZF RECHARGE     =     2864827.0000          UZF RECHARGE     =       4.6397E-02
               GW ET     =           0.0000                 GW ET     =           0.0000
     SURFACE LEAKAGE     =           0.0000       SURFACE LEAKAGE     =           0.0000
    AWU WELLS            =           0.0000      AWU WELLS            =           0.0000

                TOTAL IN =   651631104.0000                  TOTAL IN =          15.2721

          OUT:                                     OUT:
          ----                                     ----
             STORAGE     =    94848376.0000               STORAGE     =           1.1632
       CONSTANT HEAD     =           0.0000         CONSTANT HEAD     =           0.0000
     HEAD DEP BOUNDS     =    13657469.0000       HEAD DEP BOUNDS     =           0.2886
      STREAM LEAKAGE     =   463956480.0000        STREAM LEAKAGE     =          10.7312
        UZF RECHARGE     =           0.0000          UZF RECHARGE     =           0.0000
               GW ET     =    66880248.0000                 GW ET     =           3.0893
     SURFACE LEAKAGE     =           0.0000       SURFACE LEAKAGE     =           0.0000
    AWU WELLS            =    12296024.0000      AWU WELLS            =           0.0000

               TOTAL OUT =   651638592.0000                 TOTAL OUT =          15.2722

                IN - OUT =       -7488.0000                  IN - OUT =      -1.2779E-04

     PERCENT DISCREPANCY =          -0.00         PERCENT DISCREPANCY =          -0.00






         TIME SUMMARY AT END OF TIME STEP   30 IN STRESS PERIOD   19
                    SECONDS     MINUTES      HOURS       DAYS        YEARS
                    -----------------------------------------------------------
   TIME STEP LENGTH  87600.      1460.0      24.333      1.0139     2.77588E-03
 STRESS PERIOD TIME 2.62800E+06  43800.      730.00      30.417     8.32763E-02
         TOTAL TIME 4.73904E+07 7.89840E+05  13164.      548.50      1.5017    
1
1
                            STRESS PERIOD NO.   20, LENGTH =   2628000.    
                            -----------------------------------------------

                              NUMBER OF TIME STEPS =    30

                               MULTIPLIER FOR DELT =     1.000

                            INITIAL TIME STEP SIZE =   87600.00    

 REUSING NON-PARAMETER GHB CELLS FROM LAST STRESS PERIOD

      2 GHB CELLS

 REUSING STREAM SEGMENT DATA FROM LAST STRESS PERIOD



            AREAL INFILTRATION RATE
 READING ON UNIT   19 WITH FORMAT: (10F4.0)            

            1           2           3           4           5           6           7           8           9          10
 ........................................................................................................................
   1    0.000       0.000       0.000       0.000       0.000       0.000       0.000       0.000       0.000       0.000    
   2    0.000       0.000       0.000       0.000       0.000       0.000       0.000       0.000       0.000       0.000    
   3    0.000       0.000       0.000       0.000       0.000       0.000       0.000       0.000       0.000       0.000    
   4    0.000       0.000       0.000       0.000       0.000       0.000       0.000       0.000       0.000       0.000    
   5    0.000       0.000       0.000       0.000       0.000       0.000       0.000       0.000       0.000       0.000    
   6    0.000       0.000       0.000       0.000       0.000       0.000       0.000       0.000       0.000       0.000    
   7    0.000       0.000       0.000       0.000       0.000       0.000       0.000       0.000       0.000       0.000    
   8    0.000       0.000       0.000       0.000       0.000       0.000       0.000       0.000       0.000       0.000    
   9    0.000       0.000       0.000       0.000       0.000       0.000       0.000       0.000       0.000       0.000    
  10    0.000       0.000       0.000       0.000       0.000       0.000       0.000       0.000       0.000       0.000    
  11    0.000       0.000       0.000       0.000       0.000       0.000       0.000       0.000       0.000       0.000    
  12    0.000       0.000       0.000       0.000       0.000       0.000       0.000       0.000       0.000       0.000    
  13    0.000       0.000       0.000       0.000       0.000       0.000       0.000       0.000       0.000       0.000    
  14    0.000       0.000       0.000       0.000       0.000       0.000       0.000       0.000       0.000       0.000    
  15    0.000       0.000       0.000       0.000       0.000       0.000       0.000       0.000       0.000       0.000    

                  ET RATE =  6.000000E-08

 USING ET EXTINCTION DEPTH FROM PREVIOUS STRESS PERIOD. CURRENT PERIOD IS:      20

 USING EXTINCTION WATER CONTENT FROM PREVIOUS STRESS PERIOD. CURRENT PERIOD IS:      20

 PROCESSING AWU STRESS PERIOD DATA

 READING AWU STRESS PERIOD DATA

 READING IRRIGATION STREAM

 READING IRRIGATION WELL

 READING SUPPLEMENTAL WEL

 END PROCESSING AWU STRESS PERIOD DATA OPTIONS
 
 SOLVING FOR HEAD 
                                                   Max.-Head-Change                         Max.-Flux-Residual
  Residual-Control   Outer-Iter.   Inner-Iter.     Column Row Layer    Maximum-Head-Change  Column Row Layer    Maximum-Flux-Residual          L2-NORM 
          0                 1           2             4   13     1      -0.2266981450E-01       4   13    1        -0.1299475496E+01      0.2403960630E+01
          0                 2           2             4   13     1       0.2222222293E-02       4   13    1         0.1285581585E+00      0.2337936229E+00
          0                 3           2             4   13     1      -0.1958568773E-03       4   13    1        -0.1143530416E-01      0.2046536257E-01
          0                 4           1             4   13     1       0.1534812253E-04       4   13    1         0.9044164553E-03      0.1590248602E-02

    ------------------------------------------------
       NWT REQUIRED            4 OUTER ITERATIONS 
       AND A TOTAL OF          7 INNER ITERATIONS.
    ------------------------------------------------

 OUTPUT CONTROL FOR STRESS PERIOD   20   TIME STEP    1
    PRINT BUDGET
    SAVE BUDGET
    SAVE BUDGET
 UBDSV1 SAVING "         STORAGE" ON UNIT 102 AT TIME STEP     1, STRESS PERIOD  20
 UBDSV2 SAVING "   CONSTANT HEAD" ON UNIT 102 AT TIME STEP     1, STRESS PERIOD  20
 UBDSV1 SAVING "FLOW RIGHT FACE " ON UNIT 102 AT TIME STEP     1, STRESS PERIOD  20
 UBDSV1 SAVING "FLOW FRONT FACE " ON UNIT 102 AT TIME STEP     1, STRESS PERIOD  20

  HEAD DEP BOUNDS   PERIOD   20   STEP     1
 BOUNDARY      1   LAYER   1   ROW    13   COL     1   RATE   -0.287961    
 BOUNDARY      2   LAYER   1   ROW    14   COL     9   RATE    0.286026    



 STREAM LISTING     PERIOD     20   STEP        1

 LAYER ROW COL. STREAM  RCH.  FLOW INTO     FLOW TO   FLOW OUT OF   OVRLND.     DIRECT     STREAM       STREAM     STREAM     STREAM   STREAMBED  STREAMBED
                SEG.NO.  NO.  STRM. RCH.    AQUIFER    STRM. RCH.    RUNOFF     PRECIP       ET          HEAD       DEPTH      WIDTH   CONDCTNC.   GRADIENT

   1    1    1     1     1    2.8000E+01  2.5860E-01   2.7741E+01  0.000E+00  0.000E+00  0.000E+00  1.09427E+03  1.221E+00  1.361E+01  6.126E-02  1.407E+00
   1    2    2     1     2    2.7741E+01  4.0002E-01   2.7341E+01  0.000E+00  0.000E+00  0.000E+00  1.08928E+03  1.217E+00  1.355E+01  9.487E-02  1.406E+00
   1    3    3     1     3    2.7341E+01  3.4070E-01   2.7001E+01  0.000E+00  0.000E+00  0.000E+00  1.08363E+03  1.212E+00  1.348E+01  8.090E-02  1.404E+00
   1    3    4     1     4    2.7001E+01  3.1335E-01   2.6687E+01  0.000E+00  0.000E+00  0.000E+00  1.07861E+03  1.207E+00  1.342E+01  7.448E-02  1.402E+00
   1    4    5     2     1    2.4687E+01  3.2711E-01   2.4360E+01  0.000E+00  0.000E+00  0.000E+00  1.07313E+03  1.194E+00  1.200E+01  7.800E-02  1.398E+00
   1    5    6     2     2    2.4360E+01  2.5111E-01   2.4109E+01  0.000E+00  0.000E+00  0.000E+00  1.06769E+03  1.185E+00  1.200E+01  6.000E-02  1.395E+00
   1    6    6     2     3    2.4109E+01  2.5067E-01   2.3858E+01  0.000E+00  0.000E+00  0.000E+00  1.06297E+03  1.178E+00  1.200E+01  6.000E-02  1.393E+00
   1    7    6     2     4    2.3858E+01  2.5023E-01   2.3608E+01  0.000E+00  0.000E+00  0.000E+00  1.05825E+03  1.170E+00  1.200E+01  6.000E-02  1.390E+00
   1    8    6     2     5    2.3608E+01  2.4978E-01   2.3358E+01  0.000E+00  0.000E+00  0.000E+00  1.05352E+03  1.163E+00  1.200E+01  6.000E-02  1.388E+00
   1    3    5     3     1    2.0000E+00  2.8252E-01   1.7175E+00  0.000E+00  0.000E+00  0.000E+00  1.07555E+03  1.909E+00  9.636E+00  7.227E-02  1.955E+00
   1    3    6     3     2    1.7175E+00  2.4905E-01   1.4684E+00  0.000E+00  0.000E+00  0.000E+00  1.07264E+03  1.727E+00  8.909E+00  6.682E-02  1.864E+00
   1    3    7     3     3    1.4684E+00  1.9718E-01   1.2712E+00  0.000E+00  0.000E+00  0.000E+00  1.06987E+03  1.555E+00  8.218E+00  5.547E-02  1.777E+00
   1    4    8     3     4    1.2712E+00  2.2567E-01   1.0456E+00  0.000E+00  0.000E+00  0.000E+00  1.06682E+03  1.364E+00  7.455E+00  6.709E-02  1.682E+00
   1    5    8     3     5    1.0456E+00  1.5790E-01   8.8768E-01  0.000E+00  0.000E+00  0.000E+00  1.06362E+03  1.164E+00  6.655E+00  4.991E-02  1.582E+00
   1    6    8     3     6    8.8768E-01  5.5980E-02   8.3170E-01  0.000E+00  0.000E+00  0.000E+00  1.06158E+03  1.036E+00  6.145E+00  1.844E-02  1.518E+00
   1    5   10     4     1    1.0000E+01  9.0919E-02   9.9091E+00  0.000E+00  0.000E+00  0.000E+00  1.07836E+03  6.368E-01  1.000E+01  2.500E-02  1.212E+00
   1    5    9     4     2    9.9091E+00  1.8158E-01   9.7275E+00  0.000E+00  0.000E+00  0.000E+00  1.07154E+03  6.315E-01  1.000E+01  5.000E-02  1.211E+00
   1    6    8     4     3    9.7275E+00  1.2689E-01   9.6006E+00  0.000E+00  0.000E+00  0.000E+00  1.06381E+03  6.256E-01  1.000E+01  3.500E-02  1.209E+00
   1    6    8     5     1    1.0432E+01  2.2686E-01   1.0205E+01  0.000E+00  0.000E+00  0.000E+00  1.05868E+03  6.790E-01  1.542E+01  6.166E-02  1.226E+00
   1    7    7     5     2    1.0205E+01  2.7894E-01   9.9265E+00  0.000E+00  0.000E+00  0.000E+00  1.05417E+03  6.732E-01  1.519E+01  7.594E-02  1.224E+00
   1    8    7     5     3    9.9265E+00  1.9221E-01   9.7343E+00  0.000E+00  0.000E+00  0.000E+00  1.04992E+03  6.676E-01  1.497E+01  5.241E-02  1.223E+00
   1    8    6     5     4    9.7343E+00  1.3577E-01   9.5985E+00  0.000E+00  0.000E+00  0.000E+00  1.04691E+03  6.637E-01  1.482E+01  3.706E-02  1.221E+00
   1    9    6     6     1    3.2957E+01  2.6627E-01   3.2691E+01  0.000E+00  0.000E+00  0.000E+00  1.04417E+03  1.438E+00  1.200E+01  6.000E-02  1.479E+00
   1   10    7     6     2    3.2691E+01  2.6584E-01   3.2425E+01  0.000E+00  0.000E+00  0.000E+00  1.03961E+03  1.431E+00  1.200E+01  6.000E-02  1.477E+00
   1   11    7     6     3    3.2425E+01  2.6542E-01   3.2159E+01  0.000E+00  0.000E+00  0.000E+00  1.03506E+03  1.424E+00  1.200E+01  6.000E-02  1.475E+00
   1   12    7     6     4    3.2159E+01  2.6500E-01   3.1894E+01  0.000E+00  0.000E+00  0.000E+00  1.03051E+03  1.417E+00  1.200E+01  6.000E-02  1.472E+00
   1   13    7     6     5    3.1894E+01  5.1595E-03   3.1889E+01  0.000E+00  0.000E+00  0.000E+00  1.02732E+03  1.413E+00  1.200E+01  2.400E-02  7.166E-02
   1   14    9     7     1    1.5000E+02  1.3397E+00   1.4866E+02  0.000E+00  0.000E+00  0.000E+00  1.03987E+03  2.288E+00  5.529E+01  5.593E-01  7.985E-01
   1   13    8     7     2    1.4866E+02  1.8277E+00   1.4683E+02  0.000E+00  0.000E+00  0.000E+00  1.03478E+03  2.279E+00  5.526E+01  6.148E-01  9.910E-01
   1   13    7     7     3    1.4683E+02  1.4423E+00   1.4539E+02  0.000E+00  0.000E+00  0.000E+00  1.02969E+03  2.271E+00  5.522E+01  5.585E-01  8.609E-01
   1   13    6     8     1    1.7728E+02  9.2242E-01   1.7636E+02  0.000E+00  0.000E+00  0.000E+00  1.02487E+03  2.996E+00  4.344E+01  4.427E-01  6.945E-01
   1   13    5     8     2    1.7636E+02  2.0648E-01   1.7615E+02  0.000E+00  0.000E+00  0.000E+00  1.01862E+03  2.992E+00  4.339E+01  4.422E-01  1.557E-01
   1   13    4     8     3    1.7615E+02 -2.4133E+00   1.7856E+02  0.000E+00  0.000E+00  0.000E+00  1.01237E+03  2.999E+00  4.349E+01  4.432E+00 -1.815E-01
   1   13    3     8     4    1.7856E+02 -3.5639E+00   1.8213E+02  0.000E+00  0.000E+00  0.000E+00  1.00614E+03  3.018E+00  4.377E+01  4.460E+00 -2.664E-01
   1   13    2     8     5    1.8213E+02 -2.7160E+00   1.8484E+02  0.000E+00  0.000E+00  0.000E+00  9.99913E+02  3.038E+00  4.405E+01  4.489E+00 -2.017E-01
   1   13    1     8     6    1.8484E+02 -1.7617E+00   1.8661E+02  0.000E+00  0.000E+00  0.000E+00  9.94927E+02  3.052E+00  4.425E+01  2.706E+00 -2.170E-01
   1    6    8     9     1    0.0000E+00  0.0000E+00   0.0000E+00  0.000E+00  0.000E+00  0.000E+00  1.07850E+03  0.000E+00  4.000E+00  0.000E+00  1.000E+00



 UBDSV3 SAVING "           GW ET" ON UNIT  61 AT TIME STEP     1, STRESS PERIOD  20
 UBDSV3 SAVING "    UZF RECHARGE" ON UNIT  61 AT TIME STEP     1, STRESS PERIOD  20
 UBDSV3 SAVING " SURFACE LEAKAGE" ON UNIT  61 AT TIME STEP     1, STRESS PERIOD  20
 UBDSV3 SAVING "       HORT+DUNN" ON UNIT  61 AT TIME STEP     1, STRESS PERIOD  20
 UBDSV3 SAVING "  STORAGE CHANGE" ON UNIT  61 AT TIME STEP     1, STRESS PERIOD  20


UNSATURATED ZONE PACKAGE VOLUMETRIC BUDGET FOR  TIME STEP     1 STRESS PERIOD   20
  ------------------------------------------------------------------------------



     CUMULATIVE VOLUMES      L**3       RATES FOR THIS TIME STEP      L**3/T
     ------------------                 ------------------------

           IN:                                      IN:
           ---                                      ---
        INFILTRATION =    70083062.1599          INFILTRATION =       0.0000E+00

          OUT:                                     OUT:
          ----                                     ----
              UZF ET =    51897852.2130                UZF ET =           4.0571
        UZF RECHARGE =     2868922.4720          UZF RECHARGE =           0.0467

            IN - OUT =    15316287.4749              IN - OUT =          -4.1038

          STORAGE:                                 STORAGE:
          --------                                 --------
      STORAGE CHANGE =    15338115.0198        STORAGE CHANGE =          -4.1038

 PERCENT DISCREPANCY IS DIFFERENCE BETWEEN IN-OUT MINUS CHANGE IN STORAGE
 DIVIDED BY THE AVERAGE OF IN AND OUT TIMES 100

 PERCENT DISCREPANCY =          -0.01     PERCENT DISCREPANCY =          -0.00






 

 AWU WELLS                PERIOD   20   STEP   1
 AWU WELL      1   LAYER   1   ROW     6   COL     4   RATE     0.00000    
 AWU WELL      2   LAYER   1   ROW     6   COL     5   RATE     0.00000    
 AWU WELL      3   LAYER   1   ROW     7   COL     4   RATE     0.00000    
 AWU WELL      4   LAYER   1   ROW     7   COL     5   RATE     0.00000    
 AWU WELL      5   LAYER   1   ROW     8   COL     4   RATE     0.00000    
 AWU WELL      6   LAYER   1   ROW     8   COL     5   RATE     0.00000    
 
 

 DIVERSION SEGMENTS       PERIOD   20   STEP   1
 SEGMENT      9   RATE     0.00000    
 
 

 SW IRRIGATION            PERIOD   20   STEP   1
 SEGMENT      9   ROW     6   COL     4   RATE     0.00000    
 SEGMENT      9   ROW     6   COL     5   RATE     0.00000    
 SEGMENT      9   ROW     7   COL     4   RATE     0.00000    
 SEGMENT      9   ROW     7   COL     5   RATE     0.00000    
 SEGMENT      9   ROW     8   COL     4   RATE     0.00000    
 SEGMENT      9   ROW     8   COL     5   RATE     0.00000    
 
 

 GW IRRIGATION            PERIOD   20   STEP   1
 AWU WELL      1   ROW     6   COL     4   RATE     0.00000    
 AWU WELL      2   ROW     6   COL     5   RATE     0.00000    
 AWU WELL      3   ROW     7   COL     4   RATE     0.00000    
 AWU WELL      4   ROW     7   COL     5   RATE     0.00000    
 AWU WELL      5   ROW     8   COL     4   RATE     0.00000    
 AWU WELL      6   ROW     8   COL     5   RATE     0.00000    
 
1
  VOLUMETRIC BUDGET FOR ENTIRE MODEL AT END OF TIME STEP    1, STRESS PERIOD  20
  ------------------------------------------------------------------------------

     CUMULATIVE VOLUMES      L**3       RATES FOR THIS TIME STEP      L**3/T
     ------------------                 ------------------------

           IN:                                      IN:
           ---                                      ---
    AWU WELLS            =    12296024.0000      AWU WELLS            =           0.0000
    DIVERSION SEGMENTS   =    57713828.0000      DIVERSION SEGMENTS   =           0.0000
    GW IRRIGATION        =           0.0000      GW IRRIGATION        =           0.0000
    SW IRRIGATION        =           0.0000      SW IRRIGATION        =           0.0000
    EFFICIENCY FACTOR GW =           0.0000      EFFICIENCY FACTOR GW =           0.0000
    EFFICIENCY FACTOR SW =           0.0000      EFFICIENCY FACTOR SW =           0.0000

                TOTAL IN =    70009856.0000                  TOTAL IN =           0.0000

          OUT:                                     OUT:
          ----                                     ----
    AWU WELLS            =           0.0000      AWU WELLS            =           0.0000
    DIVERSION SEGMENTS   =           0.0000      DIVERSION SEGMENTS   =           0.0000
    GW IRRIGATION        =    12296024.0000      GW IRRIGATION        =           0.0000
    SW IRRIGATION        =    57713828.0000      SW IRRIGATION        =           0.0000
    EFFICIENCY FACTOR GW =           0.0000      EFFICIENCY FACTOR GW =           0.0000
    EFFICIENCY FACTOR SW =           0.0000      EFFICIENCY FACTOR SW =           0.0000

               TOTAL OUT =    70009856.0000                 TOTAL OUT =           0.0000

                IN - OUT =           0.0000                  IN - OUT =           0.0000

     PERCENT DISCREPANCY =           0.00         PERCENT DISCREPANCY =           0.00



1
  VOLUMETRIC BUDGET FOR ENTIRE MODEL AT END OF TIME STEP    1, STRESS PERIOD  20
  ------------------------------------------------------------------------------

     CUMULATIVE VOLUMES      L**3       RATES FOR THIS TIME STEP      L**3/T
     ------------------                 ------------------------

           IN:                                      IN:
           ---                                      ---
             STORAGE     =    71566240.0000               STORAGE     =           5.8539
       CONSTANT HEAD     =           0.0000         CONSTANT HEAD     =           0.0000
     HEAD DEP BOUNDS     =    13574645.0000       HEAD DEP BOUNDS     =           0.2860
      STREAM LEAKAGE     =   565201280.0000        STREAM LEAKAGE     =          11.8494
        UZF RECHARGE     =     2868921.7500          UZF RECHARGE     =       4.6743E-02
               GW ET     =           0.0000                 GW ET     =           0.0000
     SURFACE LEAKAGE     =           0.0000       SURFACE LEAKAGE     =           0.0000
    AWU WELLS            =           0.0000      AWU WELLS            =           0.0000

                TOTAL IN =   653211072.0000                  TOTAL IN =          18.0360

          OUT:                                     OUT:
          ----                                     ----
             STORAGE     =    94948480.0000               STORAGE     =           1.1427
       CONSTANT HEAD     =           0.0000         CONSTANT HEAD     =           0.0000
     HEAD DEP BOUNDS     =    13682694.0000       HEAD DEP BOUNDS     =           0.2880
      STREAM LEAKAGE     =   464872320.0000        STREAM LEAKAGE     =          10.4549
        UZF RECHARGE     =           0.0000          UZF RECHARGE     =           0.0000
               GW ET     =    67419056.0000                 GW ET     =           6.1507
     SURFACE LEAKAGE     =           0.0000       SURFACE LEAKAGE     =           0.0000
    AWU WELLS            =    12296024.0000      AWU WELLS            =           0.0000

               TOTAL OUT =   653218560.0000                 TOTAL OUT =          18.0363

                IN - OUT =       -7488.0000                  IN - OUT =      -2.6321E-04

     PERCENT DISCREPANCY =          -0.00         PERCENT DISCREPANCY =          -0.00






         TIME SUMMARY AT END OF TIME STEP    1 IN STRESS PERIOD   20
                    SECONDS     MINUTES      HOURS       DAYS        YEARS
                    -----------------------------------------------------------
   TIME STEP LENGTH  87600.      1460.0      24.333      1.0139     2.77588E-03
 STRESS PERIOD TIME  87600.      1460.0      24.333      1.0139     2.77588E-03
         TOTAL TIME 4.74780E+07 7.91300E+05  13188.      549.51      1.5045    
1
 
 SOLVING FOR HEAD 
                                                   Max.-Head-Change                         Max.-Flux-Residual
  Residual-Control   Outer-Iter.   Inner-Iter.     Column Row Layer    Maximum-Head-Change  Column Row Layer    Maximum-Flux-Residual          L2-NORM 
          0                 1           2             4   13     1      -0.2058968230E-01       4   13    1        -0.1179319032E+01      0.2234552328E+01
          0                 2           2             4   13     1       0.2017843679E-02       4   13    1         0.1166427643E+00      0.2172731218E+00
          0                 3           2             4   13     1      -0.1777808005E-03       4   13    1        -0.1037163061E-01      0.1902122324E-01
          0                 4           1             4   13     1       0.1391825964E-04       4   13    1         0.8194812499E-03      0.1478734536E-02

    ------------------------------------------------
       NWT REQUIRED            4 OUTER ITERATIONS 
       AND A TOTAL OF          7 INNER ITERATIONS.
    ------------------------------------------------

 NO OUTPUT CONTROL FOR STRESS PERIOD   20   TIME STEP    2
 
 SOLVING FOR HEAD 
                                                   Max.-Head-Change                         Max.-Flux-Residual
  Residual-Control   Outer-Iter.   Inner-Iter.     Column Row Layer    Maximum-Head-Change  Column Row Layer    Maximum-Flux-Residual          L2-NORM 
          0                 1           2             4   13     1      -0.2346089880E-01       4   13    1        -0.1342395846E+01      0.2522929509E+01
          0                 2           2             4   13     1       0.2893795122E-02       4   13    1         0.1673575386E+00      0.3026222449E+00
          0                 3           2             4   13     1      -0.2552235439E-03       4   13    1        -0.1489704685E-01      0.2648005545E-01
          0                 4           1             4   13     1       0.2000573685E-04       4   13    1         0.1178513678E-02      0.2056761245E-02

    ------------------------------------------------
       NWT REQUIRED            4 OUTER ITERATIONS 
       AND A TOTAL OF          7 INNER ITERATIONS.
    ------------------------------------------------

 NO OUTPUT CONTROL FOR STRESS PERIOD   20   TIME STEP    3
 
 SOLVING FOR HEAD 
                                                   Max.-Head-Change                         Max.-Flux-Residual
  Residual-Control   Outer-Iter.   Inner-Iter.     Column Row Layer    Maximum-Head-Change  Column Row Layer    Maximum-Flux-Residual          L2-NORM 
          0                 1           2             4   13     1      -0.2441254894E-01       4   13    1        -0.1395337834E+01      0.2641988906E+01
          0                 2           2             4   13     1       0.6126767621E-02       4   13    1         0.3552517755E+00      0.6337407745E+00
          0                 3           2             4   13     1      -0.5399129918E-03       4   13    1        -0.3159675657E-01      0.5535809585E-01
          0                 4           1             4   13     1       0.4228652659E-04       4   13    1         0.2497668154E-02      0.4289962468E-02

    ------------------------------------------------
       NWT REQUIRED            4 OUTER ITERATIONS 
       AND A TOTAL OF          7 INNER ITERATIONS.
    ------------------------------------------------

 NO OUTPUT CONTROL FOR STRESS PERIOD   20   TIME STEP    4
 
 SOLVING FOR HEAD 
                                                   Max.-Head-Change                         Max.-Flux-Residual
  Residual-Control   Outer-Iter.   Inner-Iter.     Column Row Layer    Maximum-Head-Change  Column Row Layer    Maximum-Flux-Residual          L2-NORM 
          0                 1           2             4   13     1      -0.2259403694E-01       4   13    1        -0.1290640546E+01      0.2488823347E+01
          0                 2           2             4   13     1       0.6032754869E-02       4   13    1         0.3497820736E+00      0.6266895923E+00
          0                 3           2             4   13     1      -0.5315603709E-03       4   13    1        -0.3110629969E-01      0.5473268427E-01
          0                 4           1             4   13     1       0.4161478367E-04       4   13    1         0.2457852280E-02      0.4240455747E-02

    ------------------------------------------------
       NWT REQUIRED            4 OUTER ITERATIONS 
       AND A TOTAL OF          7 INNER ITERATIONS.
    ------------------------------------------------

 NO OUTPUT CONTROL FOR STRESS PERIOD   20   TIME STEP    5
 
 SOLVING FOR HEAD 
                                                   Max.-Head-Change                         Max.-Flux-Residual
  Residual-Control   Outer-Iter.   Inner-Iter.     Column Row Layer    Maximum-Head-Change  Column Row Layer    Maximum-Flux-Residual          L2-NORM 
          0                 1           2             4   13     1      -0.2095859548E-01       4   13    1        -0.1196526929E+01      0.2349128792E+01
          0                 2           2             4   13     1       0.5972815168E-02       4   13    1         0.3463003219E+00      0.6226182069E+00
          0                 3           2             4   13     1      -0.5262338152E-03       4   13    1        -0.3079404235E-01      0.5436655386E-01
          0                 4           1             4   13     1       0.4120753287E-04       4   13    1         0.2433788541E-02      0.4210482831E-02

    ------------------------------------------------
       NWT REQUIRED            4 OUTER ITERATIONS 
       AND A TOTAL OF          7 INNER ITERATIONS.
    ------------------------------------------------

 NO OUTPUT CONTROL FOR STRESS PERIOD   20   TIME STEP    6
 
 SOLVING FOR HEAD 
                                                   Max.-Head-Change                         Max.-Flux-Residual
  Residual-Control   Outer-Iter.   Inner-Iter.     Column Row Layer    Maximum-Head-Change  Column Row Layer    Maximum-Flux-Residual          L2-NORM 
          0                 1           2             4   13     1      -0.1948955051E-01       4   13    1        -0.1112029994E+01      0.2221742356E+01
          0                 2           2             4   13     1       0.5985908832E-02       4   13    1         0.3470756381E+00      0.6255406194E+00
          0                 3           2             4   13     1      -0.5273235959E-03       4   13    1        -0.3085927372E-01      0.5461221488E-01
          0                 4           1             4   13     1       0.4128994271E-04       4   13    1         0.2438752957E-02      0.4230330269E-02

    ------------------------------------------------
       NWT REQUIRED            4 OUTER ITERATIONS 
       AND A TOTAL OF          7 INNER ITERATIONS.
    ------------------------------------------------

 NO OUTPUT CONTROL FOR STRESS PERIOD   20   TIME STEP    7
 
 SOLVING FOR HEAD 
                                                   Max.-Head-Change                         Max.-Flux-Residual
  Residual-Control   Outer-Iter.   Inner-Iter.     Column Row Layer    Maximum-Head-Change  Column Row Layer    Maximum-Flux-Residual          L2-NORM 
          0                 1           2             4   13     1      -0.1817554083E-01       4   13    1        -0.1036490667E+01      0.2105869692E+01
          0                 2           2             4   13     1       0.5992225781E-02       4   13    1         0.3474584010E+00      0.6273919177E+00
          0                 3           2             4   13     1      -0.5278338049E-03       4   13    1        -0.3089061142E-01      0.5476524446E-01
          0                 4           1             4   13     1       0.4132221050E-04       4   13    1         0.2440776854E-02      0.4240400216E-02

    ------------------------------------------------
       NWT REQUIRED            4 OUTER ITERATIONS 
       AND A TOTAL OF          7 INNER ITERATIONS.
    ------------------------------------------------

 NO OUTPUT CONTROL FOR STRESS PERIOD   20   TIME STEP    8
 
 SOLVING FOR HEAD 
                                                   Max.-Head-Change                         Max.-Flux-Residual
  Residual-Control   Outer-Iter.   Inner-Iter.     Column Row Layer    Maximum-Head-Change  Column Row Layer    Maximum-Flux-Residual          L2-NORM 
          0                 1           2             4   13     1      -0.1699911651E-01       4   13    1        -0.9688979901E+00      0.2000273535E+01
          0                 2           2             4   13     1       0.5999201085E-02       4   13    1         0.3478813107E+00      0.6289850952E+00
          0                 3           2             4   13     1      -0.5284271976E-03       4   13    1        -0.3092702319E-01      0.5489645120E-01
          0                 4           1             4   13     1       0.4136315022E-04       4   13    1         0.2443337699E-02      0.4249481158E-02

    ------------------------------------------------
       NWT REQUIRED            4 OUTER ITERATIONS 
       AND A TOTAL OF          7 INNER ITERATIONS.
    ------------------------------------------------

 NO OUTPUT CONTROL FOR STRESS PERIOD   20   TIME STEP    9
 
 SOLVING FOR HEAD 
                                                   Max.-Head-Change                         Max.-Flux-Residual
  Residual-Control   Outer-Iter.   Inner-Iter.     Column Row Layer    Maximum-Head-Change  Column Row Layer    Maximum-Flux-Residual          L2-NORM 
          0                 1           2             1   13     1      -0.1214514064E-01       1   13    1        -0.6656802174E+00      0.2032218899E+01
          0                 2           2             1   13     1       0.1172959116E-02       1   13    1         0.6488484301E-01      0.2013859914E+00
          0                 3           1             4    7     1      -0.1044575710E-03       1   13    1        -0.5652550026E-02      0.1794992028E-01
          0                 4           1             4    7     1       0.8291136336E-05       5    8    1         0.4475631938E-03      0.1423946522E-02

    ------------------------------------------------
       NWT REQUIRED            4 OUTER ITERATIONS 
       AND A TOTAL OF          6 INNER ITERATIONS.
    ------------------------------------------------

 NO OUTPUT CONTROL FOR STRESS PERIOD   20   TIME STEP   10
 
 SOLVING FOR HEAD 
                                                   Max.-Head-Change                         Max.-Flux-Residual
  Residual-Control   Outer-Iter.   Inner-Iter.     Column Row Layer    Maximum-Head-Change  Column Row Layer    Maximum-Flux-Residual          L2-NORM 
          0                 1           2             5   13     1      -0.1044614097E-01       1   13    1        -0.5712283785E+00      0.1127480101E+01
          0                 2           2             5   13     1       0.1034622038E-02       5   13    1         0.5623865446E-01      0.1095246098E+00
          0                 3           1             5   13     1      -0.9222179318E-04       5   13    1        -0.5059453357E-02      0.9646307101E-02

    ------------------------------------------------
       NWT REQUIRED            3 OUTER ITERATIONS 
       AND A TOTAL OF          5 INNER ITERATIONS.
    ------------------------------------------------

 NO OUTPUT CONTROL FOR STRESS PERIOD   20   TIME STEP   11
 
 SOLVING FOR HEAD 
                                                   Max.-Head-Change                         Max.-Flux-Residual
  Residual-Control   Outer-Iter.   Inner-Iter.     Column Row Layer    Maximum-Head-Change  Column Row Layer    Maximum-Flux-Residual          L2-NORM 
          0                 1           2             5   13     1      -0.1008249913E-01       5   13    1        -0.5430513075E+00      0.1071160986E+01
          0                 2           2             5   13     1       0.9986034519E-03       5   13    1         0.5428503791E-01      0.1040071753E+00
          0                 3           1             5   13     1      -0.8901066190E-04       5   13    1        -0.4883654536E-02      0.9164998210E-02

    ------------------------------------------------
       NWT REQUIRED            3 OUTER ITERATIONS 
       AND A TOTAL OF          5 INNER ITERATIONS.
    ------------------------------------------------

 NO OUTPUT CONTROL FOR STRESS PERIOD   20   TIME STEP   12
 
 SOLVING FOR HEAD 
                                                   Max.-Head-Change                         Max.-Flux-Residual
  Residual-Control   Outer-Iter.   Inner-Iter.     Column Row Layer    Maximum-Head-Change  Column Row Layer    Maximum-Flux-Residual          L2-NORM 
          0                 1           2             5   13     1      -0.9730931968E-02       5   13    1        -0.5241435795E+00      0.1019164430E+01
          0                 2           2             5   13     1       0.9637809010E-03       5   13    1         0.5239470558E-01      0.9890725927E-01
          0                 3           1             5   13     1      -0.8590624930E-04       5   13    1        -0.4713544950E-02      0.8719267188E-02

    ------------------------------------------------
       NWT REQUIRED            3 OUTER ITERATIONS 
       AND A TOTAL OF          5 INNER ITERATIONS.
    ------------------------------------------------

 NO OUTPUT CONTROL FOR STRESS PERIOD   20   TIME STEP   13
 
 SOLVING FOR HEAD 
                                                   Max.-Head-Change                         Max.-Flux-Residual
  Residual-Control   Outer-Iter.   Inner-Iter.     Column Row Layer    Maximum-Head-Change  Column Row Layer    Maximum-Flux-Residual          L2-NORM 
          0                 1           2             5   13     1      -0.9391392625E-02       5   13    1        -0.5058686799E+00      0.9711188465E+00
          0                 2           2             5   13     1       0.9301513626E-03       5   13    1         0.5056773765E-01      0.9418906416E-01
          0                 3           1             5   13     1      -0.8291032052E-04       5   13    1        -0.4549265191E-02      0.8307392911E-02

    ------------------------------------------------
       NWT REQUIRED            3 OUTER ITERATIONS 
       AND A TOTAL OF          5 INNER ITERATIONS.
    ------------------------------------------------

 NO OUTPUT CONTROL FOR STRESS PERIOD   20   TIME STEP   14
 
 SOLVING FOR HEAD 
                                                   Max.-Head-Change                         Max.-Flux-Residual
  Residual-Control   Outer-Iter.   Inner-Iter.     Column Row Layer    Maximum-Head-Change  Column Row Layer    Maximum-Flux-Residual          L2-NORM 
          0                 1           2             5   13     1      -0.9063671500E-02       5   13    1        -0.4882179597E+00      0.9266746215E+00
          0                 2           2             5   13     1       0.8976900666E-03       5   13    1         0.4880307655E-01      0.8981765949E-01
          0                 3           1             5   13     1      -0.8001717182E-04       5   13    1        -0.4390520935E-02      0.7924900438E-02

    ------------------------------------------------
       NWT REQUIRED            3 OUTER ITERATIONS 
       AND A TOTAL OF          5 INNER ITERATIONS.
    ------------------------------------------------

 NO OUTPUT CONTROL FOR STRESS PERIOD   20   TIME STEP   15
 
 SOLVING FOR HEAD 
                                                   Max.-Head-Change                         Max.-Flux-Residual
  Residual-Control   Outer-Iter.   Inner-Iter.     Column Row Layer    Maximum-Head-Change  Column Row Layer    Maximum-Flux-Residual          L2-NORM 
          0                 1           2             5   13     1      -0.8747529001E-02       5   13    1        -0.4711805474E+00      0.8855184390E+00
          0                 2           2             5   13     1       0.8663735268E-03       5   13    1         0.4709960400E-01      0.8576578151E-01
          0                 3           1             5   13     1      -0.7722327253E-04       5   13    1        -0.4237122328E-02      0.7570157920E-02

    ------------------------------------------------
       NWT REQUIRED            3 OUTER ITERATIONS 
       AND A TOTAL OF          5 INNER ITERATIONS.
    ------------------------------------------------

 NO OUTPUT CONTROL FOR STRESS PERIOD   20   TIME STEP   16
 
 SOLVING FOR HEAD 
                                                   Max.-Head-Change                         Max.-Flux-Residual
  Residual-Control   Outer-Iter.   Inner-Iter.     Column Row Layer    Maximum-Head-Change  Column Row Layer    Maximum-Flux-Residual          L2-NORM 
          0                 1           2             4   13     1      -0.1189909740E-01       4   13    1        -0.6773473793E+00      0.1458915380E+01
          0                 2           2             4   13     1       0.5285638794E-02       4   13    1         0.3065884834E+00      0.5454083151E+00
          0                 3           2             4   13     1      -0.4636912936E-03       4   13    1        -0.2714569882E-01      0.4789944491E-01
          0                 4           1             4   13     1       0.3631472611E-04       4   13    1         0.2145730639E-02      0.3706475749E-02

    ------------------------------------------------
       NWT REQUIRED            4 OUTER ITERATIONS 
       AND A TOTAL OF          7 INNER ITERATIONS.
    ------------------------------------------------

 NO OUTPUT CONTROL FOR STRESS PERIOD   20   TIME STEP   17
 
 SOLVING FOR HEAD 
                                                   Max.-Head-Change                         Max.-Flux-Residual
  Residual-Control   Outer-Iter.   Inner-Iter.     Column Row Layer    Maximum-Head-Change  Column Row Layer    Maximum-Flux-Residual          L2-NORM 
          0                 1           2             4   13     1      -0.1202402970E-01       4   13    1        -0.6844396466E+00      0.1466163418E+01
          0                 2           2             4   13     1       0.6157063805E-02       4   13    1         0.3572744898E+00      0.6323025668E+00
          0                 3           2             4   13     1      -0.5396144326E-03       4   13    1        -0.3160296139E-01      0.5568907241E-01
          0                 4           1             4   13     1       0.4224806486E-04       4   13    1         0.2497306129E-02      0.4309074372E-02

    ------------------------------------------------
       NWT REQUIRED            4 OUTER ITERATIONS 
       AND A TOTAL OF          7 INNER ITERATIONS.
    ------------------------------------------------

 NO OUTPUT CONTROL FOR STRESS PERIOD   20   TIME STEP   18
 
 SOLVING FOR HEAD 
                                                   Max.-Head-Change                         Max.-Flux-Residual
  Residual-Control   Outer-Iter.   Inner-Iter.     Column Row Layer    Maximum-Head-Change  Column Row Layer    Maximum-Flux-Residual          L2-NORM 
          0                 1           2             4   13     1      -0.1147819275E-01       4   13    1        -0.6531660088E+00      0.1411937707E+01
          0                 2           2             4   13     1       0.6146936774E-02       4   13    1         0.3566999549E+00      0.6311597500E+00
          0                 3           2             4   13     1      -0.5383451362E-03       4   13    1        -0.3152976140E-01      0.5572763280E-01
          0                 4           1             4   13     1       0.4215300248E-04       4   13    1         0.2491776125E-02      0.4313287740E-02

    ------------------------------------------------
       NWT REQUIRED            4 OUTER ITERATIONS 
       AND A TOTAL OF          7 INNER ITERATIONS.
    ------------------------------------------------

 NO OUTPUT CONTROL FOR STRESS PERIOD   20   TIME STEP   19
 
 SOLVING FOR HEAD 
                                                   Max.-Head-Change                         Max.-Flux-Residual
  Residual-Control   Outer-Iter.   Inner-Iter.     Column Row Layer    Maximum-Head-Change  Column Row Layer    Maximum-Flux-Residual          L2-NORM 
          0                 1           2             4   13     1      -0.1098648966E-01       4   13    1        -0.6250138721E+00      0.1361912632E+01
          0                 2           2             4   13     1       0.6138042425E-02       4   13    1         0.3561975511E+00      0.6300605512E+00
          0                 3           2             4   13     1      -0.5372027733E-03       4   13    1        -0.3146408830E-01      0.5577252239E-01
          0                 4           1             4   13     1       0.4204753010E-04       4   13    1         0.2485663566E-02      0.4314476152E-02

    ------------------------------------------------
       NWT REQUIRED            4 OUTER ITERATIONS 
       AND A TOTAL OF          7 INNER ITERATIONS.
    ------------------------------------------------

 NO OUTPUT CONTROL FOR STRESS PERIOD   20   TIME STEP   20
 
 SOLVING FOR HEAD 
                                                   Max.-Head-Change                         Max.-Flux-Residual
  Residual-Control   Outer-Iter.   Inner-Iter.     Column Row Layer    Maximum-Head-Change  Column Row Layer    Maximum-Flux-Residual          L2-NORM 
          0                 1           2             4   13     1      -0.1054332637E-01       4   13    1        -0.5996593241E+00      0.1315705305E+01
          0                 2           2             4   13     1       0.6130133922E-02       4   13    1         0.3557527234E+00      0.6289955109E+00
          0                 3           2             4   13     1      -0.5361846026E-03       4   13    1        -0.3140567751E-01      0.5582745551E-01
          0                 4           1             4   13     1       0.4197306674E-04       4   13    1         0.2481339333E-02      0.4321720269E-02

    ------------------------------------------------
       NWT REQUIRED            4 OUTER ITERATIONS 
       AND A TOTAL OF          7 INNER ITERATIONS.
    ------------------------------------------------

 NO OUTPUT CONTROL FOR STRESS PERIOD   20   TIME STEP   21
 
 SOLVING FOR HEAD 
                                                   Max.-Head-Change                         Max.-Flux-Residual
  Residual-Control   Outer-Iter.   Inner-Iter.     Column Row Layer    Maximum-Head-Change  Column Row Layer    Maximum-Flux-Residual          L2-NORM 
          0                 1           2             4   13     1      -0.1014350329E-01       4   13    1        -0.5768015512E+00      0.1272980640E+01
          0                 2           2             4   13     1       0.6123127952E-02       4   13    1         0.3553605052E+00      0.6279719248E+00
          0                 3           2             4   13     1      -0.5352348988E-03       4   13    1        -0.3135132128E-01      0.5588473669E-01
          0                 4           1             4   13     1       0.4188943683E-04       4   13    1         0.2476503966E-02      0.4325396012E-02

    ------------------------------------------------
       NWT REQUIRED            4 OUTER ITERATIONS 
       AND A TOTAL OF          7 INNER ITERATIONS.
    ------------------------------------------------

 NO OUTPUT CONTROL FOR STRESS PERIOD   20   TIME STEP   22
 
 SOLVING FOR HEAD 
                                                   Max.-Head-Change                         Max.-Flux-Residual
  Residual-Control   Outer-Iter.   Inner-Iter.     Column Row Layer    Maximum-Head-Change  Column Row Layer    Maximum-Flux-Residual          L2-NORM 
          0                 1           2             1   13     1      -0.9501282934E-02       4   13    1        -0.5282975990E+00      0.1190659348E+01
          0                 2           2             4   13     1       0.5615193453E-02       4   13    1         0.3258466919E+00      0.5769802884E+00
          0                 3           2             4   13     1      -0.4899715992E-03       4   13    1        -0.2869675051E-01      0.5182873280E-01
          0                 4           1             4   13     1       0.3832391106E-04       4   13    1         0.2265435650E-02      0.4013020405E-02

    ------------------------------------------------
       NWT REQUIRED            4 OUTER ITERATIONS 
       AND A TOTAL OF          7 INNER ITERATIONS.
    ------------------------------------------------

 NO OUTPUT CONTROL FOR STRESS PERIOD   20   TIME STEP   23
 
 SOLVING FOR HEAD 
                                                   Max.-Head-Change                         Max.-Flux-Residual
  Residual-Control   Outer-Iter.   Inner-Iter.     Column Row Layer    Maximum-Head-Change  Column Row Layer    Maximum-Flux-Residual          L2-NORM 
          0                 1           2             5   13     1      -0.6641848574E-02       5   13    1        -0.3586308687E+00      0.5993264620E+00
          0                 2           2             5   13     1       0.6578259854E-03       5   13    1         0.3584783305E-01      0.5754963908E-01
          0                 3           1             5   13     1      -0.5863390721E-04       5   13    1        -0.3224724492E-02      0.5116409519E-02

    ------------------------------------------------
       NWT REQUIRED            3 OUTER ITERATIONS 
       AND A TOTAL OF          5 INNER ITERATIONS.
    ------------------------------------------------

 NO OUTPUT CONTROL FOR STRESS PERIOD   20   TIME STEP   24
 
 SOLVING FOR HEAD 
                                                   Max.-Head-Change                         Max.-Flux-Residual
  Residual-Control   Outer-Iter.   Inner-Iter.     Column Row Layer    Maximum-Head-Change  Column Row Layer    Maximum-Flux-Residual          L2-NORM 
          0                 1           2             5   13     1      -0.6397244877E-02       5   13    1        -0.3452803532E+00      0.5819945433E+00
          0                 2           2             5   13     1       0.6335948448E-03       5   13    1         0.3451312079E-01      0.5578073582E-01
          0                 3           1             5   13     1      -0.5647484535E-04       5   13    1        -0.3104710395E-02      0.4957165777E-02

    ------------------------------------------------
       NWT REQUIRED            3 OUTER ITERATIONS 
       AND A TOTAL OF          5 INNER ITERATIONS.
    ------------------------------------------------

 NO OUTPUT CONTROL FOR STRESS PERIOD   20   TIME STEP   25
 
 SOLVING FOR HEAD 
                                                   Max.-Head-Change                         Max.-Flux-Residual
  Residual-Control   Outer-Iter.   Inner-Iter.     Column Row Layer    Maximum-Head-Change  Column Row Layer    Maximum-Flux-Residual          L2-NORM 
          0                 1           2             5   13     1      -0.6164115702E-02       5   13    1        -0.3325625560E+00      0.5656478108E+00
          0                 2           2             5   13     1       0.6105010615E-03       5   13    1         0.3324164962E-01      0.5411088736E-01
          0                 3           1             5   13     1      -0.5441618064E-04       5   13    1        -0.2990282669E-02      0.4807667881E-02

    ------------------------------------------------
       NWT REQUIRED            3 OUTER ITERATIONS 
       AND A TOTAL OF          5 INNER ITERATIONS.
    ------------------------------------------------

 NO OUTPUT CONTROL FOR STRESS PERIOD   20   TIME STEP   26
 
 SOLVING FOR HEAD 
                                                   Max.-Head-Change                         Max.-Flux-Residual
  Residual-Control   Outer-Iter.   Inner-Iter.     Column Row Layer    Maximum-Head-Change  Column Row Layer    Maximum-Flux-Residual          L2-NORM 
          0                 1           2             5   13     1      -0.5941905086E-02       5   13    1        -0.3204464085E+00      0.5502267217E+00
          0                 2           2             5   13     1       0.5884891405E-03       5   13    1         0.3203041089E-01      0.5253259487E-01
          0                 3           1             5   13     1      -0.5245374574E-04       5   13    1        -0.2881339227E-02      0.4665456328E-02

    ------------------------------------------------
       NWT REQUIRED            3 OUTER ITERATIONS 
       AND A TOTAL OF          5 INNER ITERATIONS.
    ------------------------------------------------

 NO OUTPUT CONTROL FOR STRESS PERIOD   20   TIME STEP   27
 
 SOLVING FOR HEAD 
                                                   Max.-Head-Change                         Max.-Flux-Residual
  Residual-Control   Outer-Iter.   Inner-Iter.     Column Row Layer    Maximum-Head-Change  Column Row Layer    Maximum-Flux-Residual          L2-NORM 
          0                 1           2             5   13     1      -0.5729989289E-02       5   13    1        -0.3088969953E+00      0.5356678031E+00
          0                 2           2             5   13     1       0.5674961311E-03       5   13    1         0.3087575002E-01      0.5103594534E-01
          0                 3           1             5   13     1      -0.5058110873E-04       5   13    1        -0.2777390950E-02      0.4531125328E-02

    ------------------------------------------------
       NWT REQUIRED            3 OUTER ITERATIONS 
       AND A TOTAL OF          5 INNER ITERATIONS.
    ------------------------------------------------

 NO OUTPUT CONTROL FOR STRESS PERIOD   20   TIME STEP   28
 
 SOLVING FOR HEAD 
                                                   Max.-Head-Change                         Max.-Flux-Residual
  Residual-Control   Outer-Iter.   Inner-Iter.     Column Row Layer    Maximum-Head-Change  Column Row Layer    Maximum-Flux-Residual          L2-NORM 
          0                 1           2             5   13     1      -0.5855331906E-02       5   13    1        -0.3142058153E+00      0.6204643980E+00
          0                 2           2             5   13     1       0.5798823862E-03       5   13    1         0.3140605901E-01      0.5970630998E-01
          0                 3           1             5   13     1      -0.5168378894E-04       5   13    1        -0.2825128206E-02      0.5277753431E-02

    ------------------------------------------------
       NWT REQUIRED            3 OUTER ITERATIONS 
       AND A TOTAL OF          5 INNER ITERATIONS.
    ------------------------------------------------

 NO OUTPUT CONTROL FOR STRESS PERIOD   20   TIME STEP   29
 
 SOLVING FOR HEAD 
                                                   Max.-Head-Change                         Max.-Flux-Residual
  Residual-Control   Outer-Iter.   Inner-Iter.     Column Row Layer    Maximum-Head-Change  Column Row Layer    Maximum-Flux-Residual          L2-NORM 
          0                 1           2             4   13     1      -0.8241335962E-02       4   13    1        -0.4689976416E+00      0.1336596785E+01
          0                 2           2             7   13     1      -0.8794062474E-03       7   13    1        -0.4826005838E-01      0.1411535829E+00
          0                 3           1             7   13     1       0.8710931526E-04       7   13    1         0.4821029951E-02      0.1273384647E-01

    ------------------------------------------------
       NWT REQUIRED            3 OUTER ITERATIONS 
       AND A TOTAL OF          5 INNER ITERATIONS.
    ------------------------------------------------

 NO OUTPUT CONTROL FOR STRESS PERIOD   20   TIME STEP   30



 STREAM LISTING     PERIOD     20   STEP       30

 LAYER ROW COL. STREAM  RCH.  FLOW INTO     FLOW TO   FLOW OUT OF   OVRLND.     DIRECT     STREAM       STREAM     STREAM     STREAM   STREAMBED  STREAMBED
                SEG.NO.  NO.  STRM. RCH.    AQUIFER    STRM. RCH.    RUNOFF     PRECIP       ET          HEAD       DEPTH      WIDTH   CONDCTNC.   GRADIENT

   1    1    1     1     1    1.4000E+01  1.7986E-01   1.3820E+01  0.000E+00  0.000E+00  0.000E+00  1.09404E+03  9.902E-01  1.002E+01  4.508E-02  1.330E+00
   1    2    2     1     2    1.3820E+01  2.7716E-01   1.3543E+01  0.000E+00  0.000E+00  0.000E+00  1.08904E+03  9.855E-01  9.935E+00  6.954E-02  1.328E+00
   1    3    3     1     3    1.3543E+01  2.3502E-01   1.3308E+01  0.000E+00  0.000E+00  0.000E+00  1.08340E+03  9.801E-01  9.842E+00  5.905E-02  1.327E+00
   1    3    4     1     4    1.3308E+01  2.1532E-01   1.3093E+01  0.000E+00  0.000E+00  0.000E+00  1.07838E+03  9.753E-01  9.759E+00  5.416E-02  1.325E+00
   1    4    5     2     1    1.1093E+01  2.9139E-01   1.0801E+01  0.000E+00  0.000E+00  0.000E+00  1.07267E+03  7.357E-01  1.200E+01  7.800E-02  1.245E+00
   1    5    6     2     2    1.0801E+01  2.2352E-01   1.0578E+01  0.000E+00  0.000E+00  0.000E+00  1.06723E+03  7.253E-01  1.200E+01  6.000E-02  1.242E+00
   1    6    6     2     3    1.0578E+01  2.2297E-01   1.0355E+01  0.000E+00  0.000E+00  0.000E+00  1.06251E+03  7.162E-01  1.200E+01  6.000E-02  1.239E+00
   1    7    6     2     4    1.0355E+01  2.2242E-01   1.0132E+01  0.000E+00  0.000E+00  0.000E+00  1.05778E+03  7.070E-01  1.200E+01  6.000E-02  1.236E+00
   1    8    6     2     5    1.0132E+01  2.2187E-01   9.9105E+00  0.000E+00  0.000E+00  0.000E+00  1.05306E+03  6.978E-01  1.200E+01  6.000E-02  1.233E+00
   1    3    5     3     1    2.0000E+00  2.8252E-01   1.7175E+00  0.000E+00  0.000E+00  0.000E+00  1.07555E+03  1.909E+00  9.636E+00  7.227E-02  1.955E+00
   1    3    6     3     2    1.7175E+00  2.4905E-01   1.4684E+00  0.000E+00  0.000E+00  0.000E+00  1.07264E+03  1.727E+00  8.909E+00  6.682E-02  1.864E+00
   1    3    7     3     3    1.4684E+00  1.9718E-01   1.2712E+00  0.000E+00  0.000E+00  0.000E+00  1.06987E+03  1.555E+00  8.218E+00  5.547E-02  1.777E+00
   1    4    8     3     4    1.2712E+00  2.2567E-01   1.0456E+00  0.000E+00  0.000E+00  0.000E+00  1.06682E+03  1.364E+00  7.455E+00  6.709E-02  1.682E+00
   1    5    8     3     5    1.0456E+00  1.5790E-01   8.8768E-01  0.000E+00  0.000E+00  0.000E+00  1.06362E+03  1.164E+00  6.655E+00  4.991E-02  1.582E+00
   1    6    8     3     6    8.8768E-01  5.5980E-02   8.3170E-01  0.000E+00  0.000E+00  0.000E+00  1.06158E+03  1.036E+00  6.145E+00  1.844E-02  1.518E+00
   1    5   10     4     1    1.0000E+01  9.0919E-02   9.9091E+00  0.000E+00  0.000E+00  0.000E+00  1.07836E+03  6.368E-01  1.000E+01  2.500E-02  1.212E+00
   1    5    9     4     2    9.9091E+00  1.8158E-01   9.7275E+00  0.000E+00  0.000E+00  0.000E+00  1.07154E+03  6.315E-01  1.000E+01  5.000E-02  1.211E+00
   1    6    8     4     3    9.7275E+00  1.2689E-01   9.6006E+00  0.000E+00  0.000E+00  0.000E+00  1.06381E+03  6.256E-01  1.000E+01  3.500E-02  1.209E+00
   1    6    8     5     1    1.0432E+01  2.2686E-01   1.0205E+01  0.000E+00  0.000E+00  0.000E+00  1.05868E+03  6.790E-01  1.542E+01  6.166E-02  1.226E+00
   1    7    7     5     2    1.0205E+01  2.7894E-01   9.9265E+00  0.000E+00  0.000E+00  0.000E+00  1.05417E+03  6.732E-01  1.519E+01  7.594E-02  1.224E+00
   1    8    7     5     3    9.9265E+00  1.9221E-01   9.7343E+00  0.000E+00  0.000E+00  0.000E+00  1.04992E+03  6.676E-01  1.497E+01  5.241E-02  1.223E+00
   1    8    6     5     4    9.7343E+00  1.3577E-01   9.5985E+00  0.000E+00  0.000E+00  0.000E+00  1.04691E+03  6.637E-01  1.482E+01  3.706E-02  1.221E+00
   1    9    6     6     1    1.5308E+01  2.3433E-01   1.5074E+01  0.000E+00  0.000E+00  0.000E+00  1.04363E+03  9.056E-01  1.200E+01  6.000E-02  1.302E+00
   1   10    7     6     2    1.5074E+01  2.3383E-01   1.4840E+01  0.000E+00  0.000E+00  0.000E+00  1.03908E+03  8.972E-01  1.200E+01  6.000E-02  1.299E+00
   1   11    7     6     3    1.4840E+01  2.3332E-01   1.4607E+01  0.000E+00  0.000E+00  0.000E+00  1.03453E+03  8.887E-01  1.200E+01  6.000E-02  1.296E+00
   1   12    7     6     4    1.4607E+01  2.3282E-01   1.4374E+01  0.000E+00  0.000E+00  0.000E+00  1.02997E+03  8.803E-01  1.200E+01  6.000E-02  1.293E+00
   1   13    7     6     5    1.4374E+01 -6.3885E-02   1.4438E+01  0.000E+00  0.000E+00  0.000E+00  1.02679E+03  8.772E-01  1.200E+01  2.400E-01 -8.873E-02
   1   14    9     7     1    1.5000E+02  1.3396E+00   1.4866E+02  0.000E+00  0.000E+00  0.000E+00  1.03987E+03  2.288E+00  5.529E+01  5.593E-01  7.984E-01
   1   13    8     7     2    1.4866E+02  1.8310E+00   1.4683E+02  0.000E+00  0.000E+00  0.000E+00  1.03478E+03  2.279E+00  5.526E+01  6.148E-01  9.928E-01
   1   13    7     7     3    1.4683E+02  1.4728E+00   1.4536E+02  0.000E+00  0.000E+00  0.000E+00  1.02969E+03  2.270E+00  5.522E+01  5.585E-01  8.791E-01
   1   13    6     8     1    1.5979E+02  9.0006E-01   1.5889E+02  0.000E+00  0.000E+00  0.000E+00  1.02476E+03  2.881E+00  4.178E+01  4.258E-01  7.047E-01
   1   13    5     8     2    1.5889E+02  2.5525E-01   1.5864E+02  0.000E+00  0.000E+00  0.000E+00  1.01850E+03  2.877E+00  4.172E+01  4.252E-01  2.001E-01
   1   13    4     8     3    1.5864E+02 -1.8638E+00   1.6050E+02  0.000E+00  0.000E+00  0.000E+00  1.01226E+03  2.883E+00  4.180E+01  4.260E+00 -1.458E-01
   1   13    3     8     4    1.6050E+02 -3.0135E+00   1.6352E+02  0.000E+00  0.000E+00  0.000E+00  1.00602E+03  2.899E+00  4.204E+01  4.284E+00 -2.345E-01
   1   13    2     8     5    1.6352E+02 -2.3238E+00   1.6584E+02  0.000E+00  0.000E+00  0.000E+00  9.99792E+02  2.917E+00  4.230E+01  4.310E+00 -1.797E-01
   1   13    1     8     6    1.6584E+02 -1.3269E+00   1.6717E+02  0.000E+00  0.000E+00  0.000E+00  9.94804E+02  2.929E+00  4.247E+01  2.597E+00 -1.703E-01
   1    6    8     9     1    4.2009E+00  0.0000E+00   4.2009E+00  0.000E+00  0.000E+00  0.000E+00  1.07882E+03  3.203E-01  4.000E+00  0.000E+00  1.107E+00





UNSATURATED ZONE PACKAGE VOLUMETRIC BUDGET FOR  TIME STEP    30 STRESS PERIOD   20
  ------------------------------------------------------------------------------



     CUMULATIVE VOLUMES      L**3       RATES FOR THIS TIME STEP      L**3/T
     ------------------                 ------------------------

           IN:                                      IN:
           ---                                      ---
        INFILTRATION =    82079296.7380          INFILTRATION =           6.4980

          OUT:                                     OUT:
          ----                                     ----
              UZF ET =    63917772.4005                UZF ET =           5.2744
        UZF RECHARGE =     2972616.6397          UZF RECHARGE =           0.0304

            IN - OUT =    15188907.6979              IN - OUT =           1.1932

          STORAGE:                                 STORAGE:
          --------                                 --------
      STORAGE CHANGE =    15214087.3273        STORAGE CHANGE =           1.1932

 PERCENT DISCREPANCY IS DIFFERENCE BETWEEN IN-OUT MINUS CHANGE IN STORAGE
 DIVIDED BY THE AVERAGE OF IN AND OUT TIMES 100

 PERCENT DISCREPANCY =          -0.01     PERCENT DISCREPANCY =          -0.00






1
  VOLUMETRIC BUDGET FOR ENTIRE MODEL AT END OF TIME STEP   30, STRESS PERIOD  20
  ------------------------------------------------------------------------------

     CUMULATIVE VOLUMES      L**3       RATES FOR THIS TIME STEP      L**3/T
     ------------------                 ------------------------

           IN:                                      IN:
           ---                                      ---
    AWU WELLS            =    12840343.0000      AWU WELLS            =           2.2970
    DIVERSION SEGMENTS   =    69165752.0000      DIVERSION SEGMENTS   =           4.2010
    GW IRRIGATION        =           0.0000      GW IRRIGATION        =           0.0000
    SW IRRIGATION        =           0.0000      SW IRRIGATION        =           0.0000
    EFFICIENCY FACTOR GW =           0.0000      EFFICIENCY FACTOR GW =           0.0000
    EFFICIENCY FACTOR SW =           0.0000      EFFICIENCY FACTOR SW =           0.0000

                TOTAL IN =    82006096.0000                  TOTAL IN =           6.4980

          OUT:                                     OUT:
          ----                                     ----
    AWU WELLS            =           0.0000      AWU WELLS            =           0.0000
    DIVERSION SEGMENTS   =           0.0000      DIVERSION SEGMENTS   =           0.0000
    GW IRRIGATION        =    12840343.0000      GW IRRIGATION        =           2.2970
    SW IRRIGATION        =    69165752.0000      SW IRRIGATION        =           4.2010
    EFFICIENCY FACTOR GW =           0.0000      EFFICIENCY FACTOR GW =           0.0000
    EFFICIENCY FACTOR SW =           0.0000      EFFICIENCY FACTOR SW =           0.0000

               TOTAL OUT =    82006096.0000                 TOTAL OUT =           6.4980

                IN - OUT =           0.0000                  IN - OUT =           0.0000

     PERCENT DISCREPANCY =           0.00         PERCENT DISCREPANCY =           0.00



1
  VOLUMETRIC BUDGET FOR ENTIRE MODEL AT END OF TIME STEP   30, STRESS PERIOD  20
  ------------------------------------------------------------------------------

     CUMULATIVE VOLUMES      L**3       RATES FOR THIS TIME STEP      L**3/T
     ------------------                 ------------------------

           IN:                                      IN:
           ---                                      ---
             STORAGE     =    80964616.0000               STORAGE     =           5.8670
       CONSTANT HEAD     =           0.0000         CONSTANT HEAD     =           0.0000
     HEAD DEP BOUNDS     =    14301253.0000       HEAD DEP BOUNDS     =           0.2860
      STREAM LEAKAGE     =   595346048.0000        STREAM LEAKAGE     =          11.2240
        UZF RECHARGE     =     2972616.2500          UZF RECHARGE     =       3.0375E-02
               GW ET     =           0.0000                 GW ET     =           0.0000
     SURFACE LEAKAGE     =           0.0000       SURFACE LEAKAGE     =           0.0000
    AWU WELLS            =           0.0000      AWU WELLS            =           0.0000

                TOTAL IN =   693584512.0000                  TOTAL IN =          17.4075

          OUT:                                     OUT:
          ----                                     ----
             STORAGE     =    97348136.0000               STORAGE     =           0.4869
       CONSTANT HEAD     =           0.0000         CONSTANT HEAD     =           0.0000
     HEAD DEP BOUNDS     =    14397955.0000       HEAD DEP BOUNDS     =           0.2780
      STREAM LEAKAGE     =   486621984.0000        STREAM LEAKAGE     =           8.5918
        UZF RECHARGE     =           0.0000          UZF RECHARGE     =           0.0000
               GW ET     =    82382464.0000                 GW ET     =           5.7500
     SURFACE LEAKAGE     =           0.0000       SURFACE LEAKAGE     =           0.0000
    AWU WELLS            =    12840343.0000      AWU WELLS            =           2.2970

               TOTAL OUT =   693590848.0000                 TOTAL OUT =          17.4038

                IN - OUT =       -6336.0000                  IN - OUT =       3.7060E-03

     PERCENT DISCREPANCY =          -0.00         PERCENT DISCREPANCY =           0.02






         TIME SUMMARY AT END OF TIME STEP   30 IN STRESS PERIOD   20
                    SECONDS     MINUTES      HOURS       DAYS        YEARS
                    -----------------------------------------------------------
   TIME STEP LENGTH  87600.      1460.0      24.333      1.0139     2.77588E-03
 STRESS PERIOD TIME 2.62800E+06  43800.      730.00      30.417     8.32763E-02
         TOTAL TIME 5.00184E+07 8.33640E+05  13894.      578.92      1.5850    
1
1
                            STRESS PERIOD NO.   21, LENGTH =   2628000.    
                            -----------------------------------------------

                              NUMBER OF TIME STEPS =    30

                               MULTIPLIER FOR DELT =     1.000

                            INITIAL TIME STEP SIZE =   87600.00    

 REUSING NON-PARAMETER GHB CELLS FROM LAST STRESS PERIOD

      2 GHB CELLS

 REUSING STREAM SEGMENT DATA FROM LAST STRESS PERIOD



            AREAL INFILTRATION RATE
 READING ON UNIT   19 WITH FORMAT: (10F4.0)            

            1           2           3           4           5           6           7           8           9          10
 ........................................................................................................................
   1    0.000       0.000       0.000       0.000       0.000       0.000       0.000       0.000       0.000       0.000    
   2    0.000       0.000       0.000       0.000       0.000       0.000       0.000       0.000       0.000       0.000    
   3    0.000       0.000       0.000       0.000       0.000       0.000       0.000       0.000       0.000       0.000    
   4    0.000       0.000       0.000       0.000       0.000       0.000       0.000       0.000       0.000       0.000    
   5    0.000       0.000       0.000       0.000       0.000       0.000       0.000       0.000       0.000       0.000    
   6    0.000       0.000       0.000       0.000       0.000       0.000       0.000       0.000       0.000       0.000    
   7    0.000       0.000       0.000       0.000       0.000       0.000       0.000       0.000       0.000       0.000    
   8    0.000       0.000       0.000       0.000       0.000       0.000       0.000       0.000       0.000       0.000    
   9    0.000       0.000       0.000       0.000       0.000       0.000       0.000       0.000       0.000       0.000    
  10    0.000       0.000       0.000       0.000       0.000       0.000       0.000       0.000       0.000       0.000    
  11    0.000       0.000       0.000       0.000       0.000       0.000       0.000       0.000       0.000       0.000    
  12    0.000       0.000       0.000       0.000       0.000       0.000       0.000       0.000       0.000       0.000    
  13    0.000       0.000       0.000       0.000       0.000       0.000       0.000       0.000       0.000       0.000    
  14    0.000       0.000       0.000       0.000       0.000       0.000       0.000       0.000       0.000       0.000    
  15    0.000       0.000       0.000       0.000       0.000       0.000       0.000       0.000       0.000       0.000    

                  ET RATE =  8.500000E-08

 USING ET EXTINCTION DEPTH FROM PREVIOUS STRESS PERIOD. CURRENT PERIOD IS:      21

 USING EXTINCTION WATER CONTENT FROM PREVIOUS STRESS PERIOD. CURRENT PERIOD IS:      21

 PROCESSING AWU STRESS PERIOD DATA

 READING AWU STRESS PERIOD DATA

 READING IRRIGATION STREAM

 READING IRRIGATION WELL

 READING SUPPLEMENTAL WEL

 END PROCESSING AWU STRESS PERIOD DATA OPTIONS
 
 SOLVING FOR HEAD 
                                                   Max.-Head-Change                         Max.-Flux-Residual
  Residual-Control   Outer-Iter.   Inner-Iter.     Column Row Layer    Maximum-Head-Change  Column Row Layer    Maximum-Flux-Residual          L2-NORM 
          0                 1           2             4   13     1      -0.1902788921E-01       4   13    1        -0.1085667561E+01      0.2159028010E+01
          0                 2           2             4   13     1       0.2271330878E-02       4   13    1         0.1310240535E+00      0.2496333740E+00
          0                 3           2             4   13     1      -0.1999182220E-03       4   13    1        -0.1163876428E-01      0.2186786594E-01
          0                 4           1             4   13     1       0.1562904871E-04       4   13    1         0.9182537387E-03      0.1700762627E-02

    ------------------------------------------------
       NWT REQUIRED            4 OUTER ITERATIONS 
       AND A TOTAL OF          7 INNER ITERATIONS.
    ------------------------------------------------

 NO OUTPUT CONTROL FOR STRESS PERIOD   21   TIME STEP    1
 
 SOLVING FOR HEAD 
                                                   Max.-Head-Change                         Max.-Flux-Residual
  Residual-Control   Outer-Iter.   Inner-Iter.     Column Row Layer    Maximum-Head-Change  Column Row Layer    Maximum-Flux-Residual          L2-NORM 
          0                 1           2             4   13     1      -0.1740598628E-01       4   13    1        -0.9922597702E+00      0.2026390449E+01
          0                 2           2             4   13     1       0.2152399424E-02       4   13    1         0.1241112090E+00      0.2403209622E+00
          0                 3           2             4   13     1      -0.1894030661E-03       4   13    1        -0.1102189161E-01      0.2105295504E-01
          0                 4           1             4   13     1       0.1480507611E-04       4   13    1         0.8694673606E-03      0.1637435252E-02

    ------------------------------------------------
       NWT REQUIRED            4 OUTER ITERATIONS 
       AND A TOTAL OF          7 INNER ITERATIONS.
    ------------------------------------------------

 NO OUTPUT CONTROL FOR STRESS PERIOD   21   TIME STEP    2
 
 SOLVING FOR HEAD 
                                                   Max.-Head-Change                         Max.-Flux-Residual
  Residual-Control   Outer-Iter.   Inner-Iter.     Column Row Layer    Maximum-Head-Change  Column Row Layer    Maximum-Flux-Residual          L2-NORM 
          0                 1           2             4   13     1      -0.1594447932E-01       4   13    1        -0.9081305903E+00      0.1905536036E+01
          0                 2           2             4   13     1       0.2044218851E-02       4   13    1         0.1178270686E+00      0.2316290310E+00
          0                 3           2             4   13     1      -0.1798326402E-03       4   13    1        -0.1046079065E-01      0.2029278751E-01
          0                 4           1             4   13     1       0.1405537522E-04       4   13    1         0.8251155668E-03      0.1578666534E-02

    ------------------------------------------------
       NWT REQUIRED            4 OUTER ITERATIONS 
       AND A TOTAL OF          7 INNER ITERATIONS.
    ------------------------------------------------

 NO OUTPUT CONTROL FOR STRESS PERIOD   21   TIME STEP    3
 
 SOLVING FOR HEAD 
                                                   Max.-Head-Change                         Max.-Flux-Residual
  Residual-Control   Outer-Iter.   Inner-Iter.     Column Row Layer    Maximum-Head-Change  Column Row Layer    Maximum-Flux-Residual          L2-NORM 
          0                 1           2             1   13     1      -0.1476766653E-01       4   13    1        -0.8323055056E+00      0.1795282417E+01
          0                 2           2             4   13     1       0.1945688445E-02       4   13    1         0.1121070451E+00      0.2234984392E+00
          0                 3           2             4   13     1      -0.1711219459E-03       4   13    1        -0.9950408330E-02      0.1958035670E-01
          0                 4           1             4   13     1       0.1338362902E-04       4   13    1         0.7853981615E-03      0.1523138114E-02

    ------------------------------------------------
       NWT REQUIRED            4 OUTER ITERATIONS 
       AND A TOTAL OF          7 INNER ITERATIONS.
    ------------------------------------------------

 NO OUTPUT CONTROL FOR STRESS PERIOD   21   TIME STEP    4
 
 SOLVING FOR HEAD 
                                                   Max.-Head-Change                         Max.-Flux-Residual
  Residual-Control   Outer-Iter.   Inner-Iter.     Column Row Layer    Maximum-Head-Change  Column Row Layer    Maximum-Flux-Residual          L2-NORM 
          0                 1           2             1   13     1      -0.1404215531E-01       1   13    1        -0.7696921499E+00      0.1694587214E+01
          0                 2           2             4   13     1       0.1855819668E-02       4   13    1         0.1068930987E+00      0.2158849218E+00
          0                 3           2             4   13     1      -0.1631956539E-03       4   13    1        -0.9486265878E-02      0.1891662168E-01
          0                 4           1             4   13     1       0.1275148955E-04       4   13    1         0.7480273380E-03      0.1471657018E-02

    ------------------------------------------------
       NWT REQUIRED            4 OUTER ITERATIONS 
       AND A TOTAL OF          7 INNER ITERATIONS.
    ------------------------------------------------

 NO OUTPUT CONTROL FOR STRESS PERIOD   21   TIME STEP    5
 
 SOLVING FOR HEAD 
                                                   Max.-Head-Change                         Max.-Flux-Residual
  Residual-Control   Outer-Iter.   Inner-Iter.     Column Row Layer    Maximum-Head-Change  Column Row Layer    Maximum-Flux-Residual          L2-NORM 
          0                 1           2             1   13     1      -0.1335209320E-01       1   13    1        -0.7319072731E+00      0.1602504199E+01
          0                 2           2             4   13     1       0.1773792467E-02       4   13    1         0.1021371479E+00      0.2087451795E+00
          0                 3           2             4   13     1      -0.1559538529E-03       4   13    1        -0.9062508322E-02      0.1829153744E-01
          0                 4           1             4   13     1       0.1218136508E-04       4   13    1         0.7143536886E-03      0.1422942059E-02

    ------------------------------------------------
       NWT REQUIRED            4 OUTER ITERATIONS 
       AND A TOTAL OF          7 INNER ITERATIONS.
    ------------------------------------------------

 NO OUTPUT CONTROL FOR STRESS PERIOD   21   TIME STEP    6
 
 SOLVING FOR HEAD 
                                                   Max.-Head-Change                         Max.-Flux-Residual
  Residual-Control   Outer-Iter.   Inner-Iter.     Column Row Layer    Maximum-Head-Change  Column Row Layer    Maximum-Flux-Residual          L2-NORM 
          0                 1           2             1   13     1      -0.1269585805E-01       1   13    1        -0.6959709409E+00      0.1518193033E+01
          0                 2           2             4   13     1       0.1698843421E-02       4   13    1         0.9779435323E-01      0.2020448750E+00
          0                 3           2             4   13     1      -0.1493372248E-03       4   13    1        -0.8675544697E-02      0.1770724425E-01
          0                 4           1             4   13     1       0.1165396207E-04       4   13    1         0.6832230010E-03      0.1377173497E-02

    ------------------------------------------------
       NWT REQUIRED            4 OUTER ITERATIONS 
       AND A TOTAL OF          7 INNER ITERATIONS.
    ------------------------------------------------

 NO OUTPUT CONTROL FOR STRESS PERIOD   21   TIME STEP    7
 
 SOLVING FOR HEAD 
                                                   Max.-Head-Change                         Max.-Flux-Residual
  Residual-Control   Outer-Iter.   Inner-Iter.     Column Row Layer    Maximum-Head-Change  Column Row Layer    Maximum-Flux-Residual          L2-NORM 
          0                 1           2             5   13     1      -0.1107647584E-01       5   13    1        -0.5974083138E+00      0.1107353567E+01
          0                 2           2             5   13     1       0.1096931252E-02       5   13    1         0.5971458250E-01      0.1085095579E+00
          0                 3           1             5   13     1      -0.9777052008E-04       5   13    1        -0.5371834262E-02      0.9606453443E-02

    ------------------------------------------------
       NWT REQUIRED            3 OUTER ITERATIONS 
       AND A TOTAL OF          5 INNER ITERATIONS.
    ------------------------------------------------

 NO OUTPUT CONTROL FOR STRESS PERIOD   21   TIME STEP    8
 
 SOLVING FOR HEAD 
                                                   Max.-Head-Change                         Max.-Flux-Residual
  Residual-Control   Outer-Iter.   Inner-Iter.     Column Row Layer    Maximum-Head-Change  Column Row Layer    Maximum-Flux-Residual          L2-NORM 
          0                 1           2             5   13     1      -0.1067702074E-01       5   13    1        -0.5758220201E+00      0.1059252089E+01
          0                 2           2             5   13     1       0.1057408828E-02       5   13    1         0.5755635625E-01      0.1038936747E+00
          0                 3           1             5   13     1      -0.9424624698E-04       5   13    1        -0.5177586164E-02      0.9203168176E-02

    ------------------------------------------------
       NWT REQUIRED            3 OUTER ITERATIONS 
       AND A TOTAL OF          5 INNER ITERATIONS.
    ------------------------------------------------

 NO OUTPUT CONTROL FOR STRESS PERIOD   21   TIME STEP    9
 
 SOLVING FOR HEAD 
                                                   Max.-Head-Change                         Max.-Flux-Residual
  Residual-Control   Outer-Iter.   Inner-Iter.     Column Row Layer    Maximum-Head-Change  Column Row Layer    Maximum-Flux-Residual          L2-NORM 
          0                 1           2             5   13     1      -0.1029282365E-01       5   13    1        -0.5550536225E+00      0.1014724332E+01
          0                 2           2             5   13     1       0.1019354402E-02       5   13    1         0.5548007686E-01      0.9955100446E-01
          0                 3           1             5   13     1      -0.9085234533E-04       5   13    1        -0.4990701277E-02      0.8822699211E-02

    ------------------------------------------------
       NWT REQUIRED            3 OUTER ITERATIONS 
       AND A TOTAL OF          5 INNER ITERATIONS.
    ------------------------------------------------

 NO OUTPUT CONTROL FOR STRESS PERIOD   21   TIME STEP   10
 
 SOLVING FOR HEAD 
                                                   Max.-Head-Change                         Max.-Flux-Residual
  Residual-Control   Outer-Iter.   Inner-Iter.     Column Row Layer    Maximum-Head-Change  Column Row Layer    Maximum-Flux-Residual          L2-NORM 
          0                 1           2             5   13     1      -0.9923461295E-02       5   13    1        -0.5350792201E+00      0.9734110949E+00
          0                 2           2             5   13     1       0.9827675606E-03       5   13    1         0.5348308430E-01      0.9551943700E-01
          0                 3           1             5   13     1      -0.8759092437E-04       5   13    1        -0.4811015982E-02      0.8470199930E-02

    ------------------------------------------------
       NWT REQUIRED            3 OUTER ITERATIONS 
       AND A TOTAL OF          5 INNER ITERATIONS.
    ------------------------------------------------

 NO OUTPUT CONTROL FOR STRESS PERIOD   21   TIME STEP   11
 
 SOLVING FOR HEAD 
                                                   Max.-Head-Change                         Max.-Flux-Residual
  Residual-Control   Outer-Iter.   Inner-Iter.     Column Row Layer    Maximum-Head-Change  Column Row Layer    Maximum-Flux-Residual          L2-NORM 
          0                 1           2             5   13     1      -0.9568572908E-02       5   13    1        -0.5158811838E+00      0.9350396270E+00
          0                 2           2             5   13     1       0.9476184317E-03       5   13    1         0.5156393432E-01      0.9174897850E-01
          0                 3           1             5   13     1      -0.8445709703E-04       5   13    1        -0.4638317723E-02      0.8139189078E-02

    ------------------------------------------------
       NWT REQUIRED            3 OUTER ITERATIONS 
       AND A TOTAL OF          5 INNER ITERATIONS.
    ------------------------------------------------

 NO OUTPUT CONTROL FOR STRESS PERIOD   21   TIME STEP   12
 
 SOLVING FOR HEAD 
                                                   Max.-Head-Change                         Max.-Flux-Residual
  Residual-Control   Outer-Iter.   Inner-Iter.     Column Row Layer    Maximum-Head-Change  Column Row Layer    Maximum-Flux-Residual          L2-NORM 
          0                 1           2             5   13     1      -0.9227665219E-02       5   13    1        -0.4974340036E+00      0.8993508259E+00
          0                 2           2             5   13     1       0.9138522621E-03       5   13    1         0.4971975891E-01      0.8823520081E-01
          0                 3           1             5   13     1      -0.8144843411E-04       5   13    1        -0.4472459532E-02      0.7814184653E-02

    ------------------------------------------------
       NWT REQUIRED            3 OUTER ITERATIONS 
       AND A TOTAL OF          5 INNER ITERATIONS.
    ------------------------------------------------

 NO OUTPUT CONTROL FOR STRESS PERIOD   21   TIME STEP   13
 
 SOLVING FOR HEAD 
                                                   Max.-Head-Change                         Max.-Flux-Residual
  Residual-Control   Outer-Iter.   Inner-Iter.     Column Row Layer    Maximum-Head-Change  Column Row Layer    Maximum-Flux-Residual          L2-NORM 
          0                 1           2             4    7     1      -0.2078434126E-01       5    8    1        -0.1097740366E+01      0.2922333420E+01
          0                 2           2             4    7     1      -0.4972509702E-01       4    6    1        -0.2600046646E+01      0.6368136812E+01
          0                 3           2             4    7     1       0.4927002365E-02       4    7    1         0.2599788430E+00      0.6363068268E+00
          0                 4           2             4    7     1      -0.4394031736E-03       4    7    1        -0.2339812357E-01      0.5726614672E-01
          0                 5           1             4    7     1       0.3487682414E-04       4    7    1         0.1874189977E-02      0.4586927240E-02

    ------------------------------------------------
       NWT REQUIRED            5 OUTER ITERATIONS 
       AND A TOTAL OF          9 INNER ITERATIONS.
    ------------------------------------------------

 NO OUTPUT CONTROL FOR STRESS PERIOD   21   TIME STEP   14
 
 SOLVING FOR HEAD 
                                                   Max.-Head-Change                         Max.-Flux-Residual
  Residual-Control   Outer-Iter.   Inner-Iter.     Column Row Layer    Maximum-Head-Change  Column Row Layer    Maximum-Flux-Residual          L2-NORM 
          0                 1           2             5   13     1      -0.9310858668E-02       5   13    1        -0.4992727455E+00      0.1163959751E+01
          0                 2           2             5   13     1       0.9219578782E-03       5   13    1         0.4989844622E-01      0.1140077754E+00
          0                 3           1             5   13     1      -0.8215830073E-04       5   13    1        -0.4488046048E-02      0.1006844820E-01

    ------------------------------------------------
       NWT REQUIRED            3 OUTER ITERATIONS 
       AND A TOTAL OF          5 INNER ITERATIONS.
    ------------------------------------------------

 NO OUTPUT CONTROL FOR STRESS PERIOD   21   TIME STEP   15
 
 SOLVING FOR HEAD 
                                                   Max.-Head-Change                         Max.-Flux-Residual
  Residual-Control   Outer-Iter.   Inner-Iter.     Column Row Layer    Maximum-Head-Change  Column Row Layer    Maximum-Flux-Residual          L2-NORM 
          0                 1           2             5   13     1      -0.9024837797E-02       5   13    1        -0.4840439106E+00      0.1110815055E+01
          0                 2           2             5   13     1       0.8936357196E-03       5   13    1         0.4837622361E-01      0.1088503424E+00
          0                 3           1             5   13     1      -0.7963358246E-04       5   13    1        -0.4351066500E-02      0.9620118518E-02

    ------------------------------------------------
       NWT REQUIRED            3 OUTER ITERATIONS 
       AND A TOTAL OF          5 INNER ITERATIONS.
    ------------------------------------------------

 NO OUTPUT CONTROL FOR STRESS PERIOD   21   TIME STEP   16
 
 SOLVING FOR HEAD 
                                                   Max.-Head-Change                         Max.-Flux-Residual
  Residual-Control   Outer-Iter.   Inner-Iter.     Column Row Layer    Maximum-Head-Change  Column Row Layer    Maximum-Flux-Residual          L2-NORM 
          0                 1           2             5   13     1      -0.8746057863E-02       5   13    1        -0.4691761543E+00      0.1061942778E+01
          0                 2           2             5   13     1       0.8660275407E-03       5   13    1         0.4688995692E-01      0.1041052891E+00
          0                 3           1             5   13     1      -0.7717272952E-04       5   13    1        -0.4217343995E-02      0.9206646020E-02

    ------------------------------------------------
       NWT REQUIRED            3 OUTER ITERATIONS 
       AND A TOTAL OF          5 INNER ITERATIONS.
    ------------------------------------------------

 NO OUTPUT CONTROL FOR STRESS PERIOD   21   TIME STEP   17
 
 SOLVING FOR HEAD 
                                                   Max.-Head-Change                         Max.-Flux-Residual
  Residual-Control   Outer-Iter.   Inner-Iter.     Column Row Layer    Maximum-Head-Change  Column Row Layer    Maximum-Flux-Residual          L2-NORM 
          0                 1           2             5   13     1      -0.8474605221E-02       5   13    1        -0.4546780063E+00      0.1016928926E+01
          0                 2           2             5   13     1       0.8391480629E-03       5   13    1         0.4544081403E-01      0.9973448194E-01
          0                 3           1             5   13     1      -0.7477595140E-04       5   13    1        -0.4086904459E-02      0.8826894402E-02

    ------------------------------------------------
       NWT REQUIRED            3 OUTER ITERATIONS 
       AND A TOTAL OF          5 INNER ITERATIONS.
    ------------------------------------------------

 NO OUTPUT CONTROL FOR STRESS PERIOD   21   TIME STEP   18
 
 SOLVING FOR HEAD 
                                                   Max.-Head-Change                         Max.-Flux-Residual
  Residual-Control   Outer-Iter.   Inner-Iter.     Column Row Layer    Maximum-Head-Change  Column Row Layer    Maximum-Flux-Residual          L2-NORM 
          0                 1           2             5   13     1      -0.8210729025E-02       5   13    1        -0.4405662216E+00      0.9754309250E+00
          0                 2           2             5   13     1       0.8130181178E-03       5   13    1         0.4403027284E-01      0.9570370310E-01
          0                 3           1             5   13     1      -0.7245007417E-04       5   13    1        -0.3960154448E-02      0.8477069469E-02

    ------------------------------------------------
       NWT REQUIRED            3 OUTER ITERATIONS 
       AND A TOTAL OF          5 INNER ITERATIONS.
    ------------------------------------------------

 NO OUTPUT CONTROL FOR STRESS PERIOD   21   TIME STEP   19
 
 SOLVING FOR HEAD 
                                                   Max.-Head-Change                         Max.-Flux-Residual
  Residual-Control   Outer-Iter.   Inner-Iter.     Column Row Layer    Maximum-Head-Change  Column Row Layer    Maximum-Flux-Residual          L2-NORM 
          0                 1           2             5   13     1      -0.7954621727E-02       5   13    1        -0.4268541971E+00      0.9371233857E+00
          0                 2           2             5   13     1       0.7876561223E-03       5   13    1         0.4265963450E-01      0.9198134042E-01
          0                 3           1             5   13     1      -0.7018912162E-04       5   13    1        -0.3836838345E-02      0.8152692429E-02

    ------------------------------------------------
       NWT REQUIRED            3 OUTER ITERATIONS 
       AND A TOTAL OF          5 INNER ITERATIONS.
    ------------------------------------------------

 NO OUTPUT CONTROL FOR STRESS PERIOD   21   TIME STEP   20
 
 SOLVING FOR HEAD 
                                                   Max.-Head-Change                         Max.-Flux-Residual
  Residual-Control   Outer-Iter.   Inner-Iter.     Column Row Layer    Maximum-Head-Change  Column Row Layer    Maximum-Flux-Residual          L2-NORM 
          0                 1           2             4    7     1      -0.3198877259E-01       4    7    1        -0.1673298940E+01      0.4114556206E+01
          0                 2           2             4    7     1       0.3169779644E-02       4    7    1         0.1673287945E+00      0.4111973226E+00
          0                 3           2             4    7     1      -0.2826892974E-03       4    7    1        -0.1505960419E-01      0.3699220821E-01
          0                 4           1             4    7     1       0.2243794718E-04       4    7    1         0.1206274516E-02      0.2961807015E-02

    ------------------------------------------------
       NWT REQUIRED            4 OUTER ITERATIONS 
       AND A TOTAL OF          7 INNER ITERATIONS.
    ------------------------------------------------

 NO OUTPUT CONTROL FOR STRESS PERIOD   21   TIME STEP   21
 
 SOLVING FOR HEAD 
                                                   Max.-Head-Change                         Max.-Flux-Residual
  Residual-Control   Outer-Iter.   Inner-Iter.     Column Row Layer    Maximum-Head-Change  Column Row Layer    Maximum-Flux-Residual          L2-NORM 
          0                 1           2             5   13     1      -0.6744020778E-02       5   13    1        -0.3644566016E+00      0.7058649245E+00
          0                 2           2             5   13     1       0.6679049520E-03       5   13    1         0.3642756211E-01      0.6988906774E-01
          0                 3           1             5   13     1      -0.5953051840E-04       5   13    1        -0.3276744327E-02      0.6272361955E-02

    ------------------------------------------------
       NWT REQUIRED            3 OUTER ITERATIONS 
       AND A TOTAL OF          5 INNER ITERATIONS.
    ------------------------------------------------

 NO OUTPUT CONTROL FOR STRESS PERIOD   21   TIME STEP   22
 
 SOLVING FOR HEAD 
                                                   Max.-Head-Change                         Max.-Flux-Residual
  Residual-Control   Outer-Iter.   Inner-Iter.     Column Row Layer    Maximum-Head-Change  Column Row Layer    Maximum-Flux-Residual          L2-NORM 
          0                 1           2             5   13     1      -0.6491254413E-02       5   13    1        -0.3505897940E+00      0.6859223707E+00
          0                 2           2             5   13     1       0.6428639491E-03       5   13    1         0.3504121777E-01      0.6788855086E-01
          0                 3           1             5   13     1      -0.5729791191E-04       5   13    1        -0.3151998897E-02      0.6092148620E-02

    ------------------------------------------------
       NWT REQUIRED            3 OUTER ITERATIONS 
       AND A TOTAL OF          5 INNER ITERATIONS.
    ------------------------------------------------

 NO OUTPUT CONTROL FOR STRESS PERIOD   21   TIME STEP   23
 
 SOLVING FOR HEAD 
                                                   Max.-Head-Change                         Max.-Flux-Residual
  Residual-Control   Outer-Iter.   Inner-Iter.     Column Row Layer    Maximum-Head-Change  Column Row Layer    Maximum-Flux-Residual          L2-NORM 
          0                 1           2             5   13     1      -0.6251642036E-02       5   13    1        -0.3374549607E+00      0.6672296274E+00
          0                 2           2             5   13     1       0.6191272071E-03       5   13    1         0.3372810451E-01      0.6601389368E-01
          0                 3           1             5   13     1      -0.5518136889E-04       5   13    1        -0.3033847049E-02      0.5923561977E-02

    ------------------------------------------------
       NWT REQUIRED            3 OUTER ITERATIONS 
       AND A TOTAL OF          5 INNER ITERATIONS.
    ------------------------------------------------

 NO OUTPUT CONTROL FOR STRESS PERIOD   21   TIME STEP   24
 
 SOLVING FOR HEAD 
                                                   Max.-Head-Change                         Max.-Flux-Residual
  Residual-Control   Outer-Iter.   Inner-Iter.     Column Row Layer    Maximum-Head-Change  Column Row Layer    Maximum-Flux-Residual          L2-NORM 
          0                 1           2             5   13     1      -0.6024185228E-02       5   13    1        -0.3249961846E+00      0.6496656982E+00
          0                 2           2             5   13     1       0.5965935398E-03       5   13    1         0.3248251703E-01      0.6424966023E-01
          0                 3           1             5   13     1      -0.5318007094E-04       5   13    1        -0.2921657717E-02      0.5765669025E-02

    ------------------------------------------------
       NWT REQUIRED            3 OUTER ITERATIONS 
       AND A TOTAL OF          5 INNER ITERATIONS.
    ------------------------------------------------

 NO OUTPUT CONTROL FOR STRESS PERIOD   21   TIME STEP   25
 
 SOLVING FOR HEAD 
                                                   Max.-Head-Change                         Max.-Flux-Residual
  Residual-Control   Outer-Iter.   Inner-Iter.     Column Row Layer    Maximum-Head-Change  Column Row Layer    Maximum-Flux-Residual          L2-NORM 
          0                 1           2             5   13     1      -0.5808211140E-02       5   13    1        -0.3131751991E+00      0.6331569470E+00
          0                 2           2             5   13     1       0.5751998153E-03       5   13    1         0.3130082281E-01      0.6259452472E-01
          0                 3           1             5   13     1      -0.5126370741E-04       5   13    1        -0.2815390669E-02      0.5615325361E-02

    ------------------------------------------------
       NWT REQUIRED            3 OUTER ITERATIONS 
       AND A TOTAL OF          5 INNER ITERATIONS.
    ------------------------------------------------

 NO OUTPUT CONTROL FOR STRESS PERIOD   21   TIME STEP   26
 
 SOLVING FOR HEAD 
                                                   Max.-Head-Change                         Max.-Flux-Residual
  Residual-Control   Outer-Iter.   Inner-Iter.     Column Row Layer    Maximum-Head-Change  Column Row Layer    Maximum-Flux-Residual          L2-NORM 
          0                 1           2             5   13     1      -0.5602952475E-02       5   13    1        -0.3019487838E+00      0.6175949689E+00
          0                 2           2             5   13     1       0.5548658815E-03       5   13    1         0.3017845704E-01      0.6103479665E-01
          0                 3           1             5   13     1      -0.4945125600E-04       5   13    1        -0.2714428303E-02      0.5475056479E-02

    ------------------------------------------------
       NWT REQUIRED            3 OUTER ITERATIONS 
       AND A TOTAL OF          5 INNER ITERATIONS.
    ------------------------------------------------

 NO OUTPUT CONTROL FOR STRESS PERIOD   21   TIME STEP   27
 
 SOLVING FOR HEAD 
                                                   Max.-Head-Change                         Max.-Flux-Residual
  Residual-Control   Outer-Iter.   Inner-Iter.     Column Row Layer    Maximum-Head-Change  Column Row Layer    Maximum-Flux-Residual          L2-NORM 
          0                 1           2             5   13     1      -0.6128529422E-02       5   13    1        -0.3273309192E+00      0.8247394556E+00
          0                 2           2             5   13     1       0.6067705681E-03       5   13    1         0.3271033863E-01      0.8089774713E-01
          0                 3           1             5   13     1      -0.5406254482E-04       5   13    1        -0.2941638191E-02      0.7168774997E-02

    ------------------------------------------------
       NWT REQUIRED            3 OUTER ITERATIONS 
       AND A TOTAL OF          5 INNER ITERATIONS.
    ------------------------------------------------

 NO OUTPUT CONTROL FOR STRESS PERIOD   21   TIME STEP   28
 
 SOLVING FOR HEAD 
                                                   Max.-Head-Change                         Max.-Flux-Residual
  Residual-Control   Outer-Iter.   Inner-Iter.     Column Row Layer    Maximum-Head-Change  Column Row Layer    Maximum-Flux-Residual          L2-NORM 
          0                 1           2             5   13     1      -0.5963518333E-02       5   13    1        -0.3186051600E+00      0.7945527240E+00
          0                 2           2             5   13     1       0.5904327745E-03       5   13    1         0.3183820882E-01      0.7796939149E-01
          0                 3           1             5   13     1      -0.5260675829E-04       5   13    1        -0.2863189108E-02      0.6914267858E-02

    ------------------------------------------------
       NWT REQUIRED            3 OUTER ITERATIONS 
       AND A TOTAL OF          5 INNER ITERATIONS.
    ------------------------------------------------

 NO OUTPUT CONTROL FOR STRESS PERIOD   21   TIME STEP   29
 
 SOLVING FOR HEAD 
                                                   Max.-Head-Change                         Max.-Flux-Residual
  Residual-Control   Outer-Iter.   Inner-Iter.     Column Row Layer    Maximum-Head-Change  Column Row Layer    Maximum-Flux-Residual          L2-NORM 
          0                 1           2             5   13     1      -0.5801696446E-02       5   13    1        -0.3100295874E+00      0.7805609384E+00
          0                 2           2             5   13     1       0.5744144957E-03       5   13    1         0.3098130587E-01      0.7669031873E-01
          0                 3           1             5   13     1      -0.5118236677E-04       5   13    1        -0.2786266182E-02      0.6810156054E-02

    ------------------------------------------------
       NWT REQUIRED            3 OUTER ITERATIONS 
       AND A TOTAL OF          5 INNER ITERATIONS.
    ------------------------------------------------

 NO OUTPUT CONTROL FOR STRESS PERIOD   21   TIME STEP   30



 STREAM LISTING     PERIOD     21   STEP       30

 LAYER ROW COL. STREAM  RCH.  FLOW INTO     FLOW TO   FLOW OUT OF   OVRLND.     DIRECT     STREAM       STREAM     STREAM     STREAM   STREAMBED  STREAMBED
                SEG.NO.  NO.  STRM. RCH.    AQUIFER    STRM. RCH.    RUNOFF     PRECIP       ET          HEAD       DEPTH      WIDTH   CONDCTNC.   GRADIENT

   1    1    1     1     1    1.0292E+01  1.5099E-01   1.0141E+01  0.000E+00  0.000E+00  0.000E+00  1.09395E+03  9.056E-01  8.591E+00  3.866E-02  1.302E+00
   1    2    2     1     2    1.0141E+01  2.3238E-01   9.9089E+00  0.000E+00  0.000E+00  0.000E+00  1.08896E+03  9.007E-01  8.511E+00  5.957E-02  1.300E+00
   1    3    3     1     3    9.9089E+00  1.9655E-01   9.7123E+00  0.000E+00  0.000E+00  0.000E+00  1.08331E+03  8.943E-01  8.412E+00  5.047E-02  1.298E+00
   1    3    4     1     4    9.7123E+00  1.7964E-01   9.5327E+00  0.000E+00  0.000E+00  0.000E+00  1.07830E+03  8.886E-01  8.324E+00  4.620E-02  1.296E+00
   1    4    5     2     1    7.5327E+00  2.7935E-01   7.2533E+00  0.000E+00  0.000E+00  0.000E+00  1.07252E+03  5.813E-01  1.200E+01  7.800E-02  1.194E+00
   1    5    6     2     2    7.2533E+00  2.1418E-01   7.0391E+00  0.000E+00  0.000E+00  0.000E+00  1.06708E+03  5.696E-01  1.200E+01  6.000E-02  1.190E+00
   1    6    6     2     3    7.0391E+00  2.1356E-01   6.8256E+00  0.000E+00  0.000E+00  0.000E+00  1.06235E+03  5.593E-01  1.200E+01  6.000E-02  1.186E+00
   1    7    6     2     4    6.8256E+00  2.1294E-01   6.6127E+00  0.000E+00  0.000E+00  0.000E+00  1.05762E+03  5.489E-01  1.200E+01  6.000E-02  1.183E+00
   1    8    6     2     5    6.6127E+00  2.1231E-01   6.4003E+00  0.000E+00  0.000E+00  0.000E+00  1.05290E+03  5.385E-01  1.200E+01  6.000E-02  1.179E+00
   1    3    5     3     1    2.0000E+00  2.8252E-01   1.7175E+00  0.000E+00  0.000E+00  0.000E+00  1.07555E+03  1.909E+00  9.636E+00  7.227E-02  1.955E+00
   1    3    6     3     2    1.7175E+00  2.4905E-01   1.4684E+00  0.000E+00  0.000E+00  0.000E+00  1.07264E+03  1.727E+00  8.909E+00  6.682E-02  1.864E+00
   1    3    7     3     3    1.4684E+00  1.9718E-01   1.2712E+00  0.000E+00  0.000E+00  0.000E+00  1.06987E+03  1.555E+00  8.218E+00  5.547E-02  1.777E+00
   1    4    8     3     4    1.2712E+00  2.2567E-01   1.0456E+00  0.000E+00  0.000E+00  0.000E+00  1.06682E+03  1.364E+00  7.455E+00  6.709E-02  1.682E+00
   1    5    8     3     5    1.0456E+00  1.5790E-01   8.8768E-01  0.000E+00  0.000E+00  0.000E+00  1.06362E+03  1.164E+00  6.655E+00  4.991E-02  1.582E+00
   1    6    8     3     6    8.8768E-01  5.5980E-02   8.3170E-01  0.000E+00  0.000E+00  0.000E+00  1.06158E+03  1.036E+00  6.145E+00  1.844E-02  1.518E+00
   1    5   10     4     1    1.0000E+01  9.0919E-02   9.9091E+00  0.000E+00  0.000E+00  0.000E+00  1.07836E+03  6.368E-01  1.000E+01  2.500E-02  1.212E+00
   1    5    9     4     2    9.9091E+00  1.8158E-01   9.7275E+00  0.000E+00  0.000E+00  0.000E+00  1.07154E+03  6.315E-01  1.000E+01  5.000E-02  1.211E+00
   1    6    8     4     3    9.7275E+00  1.2689E-01   9.6006E+00  0.000E+00  0.000E+00  0.000E+00  1.06381E+03  6.256E-01  1.000E+01  3.500E-02  1.209E+00
   1    6    8     5     1    1.0432E+01  2.2686E-01   1.0205E+01  0.000E+00  0.000E+00  0.000E+00  1.05868E+03  6.790E-01  1.542E+01  6.166E-02  1.226E+00
   1    7    7     5     2    1.0205E+01  2.7894E-01   9.9265E+00  0.000E+00  0.000E+00  0.000E+00  1.05417E+03  6.732E-01  1.519E+01  7.594E-02  1.224E+00
   1    8    7     5     3    9.9265E+00  1.9221E-01   9.7343E+00  0.000E+00  0.000E+00  0.000E+00  1.04992E+03  6.676E-01  1.497E+01  5.241E-02  1.223E+00
   1    8    6     5     4    9.7343E+00  1.3577E-01   9.5985E+00  0.000E+00  0.000E+00  0.000E+00  1.04691E+03  6.637E-01  1.482E+01  3.706E-02  1.221E+00
   1    9    6     6     1    9.5985E+00  2.2097E-01   9.3776E+00  0.000E+00  0.000E+00  0.000E+00  1.04341E+03  6.828E-01  1.200E+01  6.000E-02  1.228E+00
   1   10    7     6     2    9.3776E+00  2.2039E-01   9.1572E+00  0.000E+00  0.000E+00  0.000E+00  1.03885E+03  6.732E-01  1.200E+01  6.000E-02  1.224E+00
   1   11    7     6     3    9.1572E+00  2.1981E-01   8.9374E+00  0.000E+00  0.000E+00  0.000E+00  1.03430E+03  6.636E-01  1.200E+01  6.000E-02  1.221E+00
   1   12    7     6     4    8.9374E+00  2.1923E-01   8.7181E+00  0.000E+00  0.000E+00  0.000E+00  1.02974E+03  6.539E-01  1.200E+01  6.000E-02  1.218E+00
   1   13    7     6     5    8.7181E+00 -9.8365E-02   8.8165E+00  0.000E+00  0.000E+00  0.000E+00  1.02656E+03  6.512E-01  1.200E+01  2.400E-01 -1.366E-01
   1   14    9     7     1    1.5000E+02  1.3396E+00   1.4866E+02  0.000E+00  0.000E+00  0.000E+00  1.03987E+03  2.288E+00  5.529E+01  5.593E-01  7.983E-01
   1   13    8     7     2    1.4866E+02  1.8399E+00   1.4682E+02  0.000E+00  0.000E+00  0.000E+00  1.03478E+03  2.279E+00  5.526E+01  6.148E-01  9.976E-01
   1   13    7     7     3    1.4682E+02  1.5187E+00   1.4530E+02  0.000E+00  0.000E+00  0.000E+00  1.02969E+03  2.270E+00  5.522E+01  5.584E-01  9.065E-01
   1   13    6     8     1    1.5412E+02  9.3793E-01   1.5318E+02  0.000E+00  0.000E+00  0.000E+00  1.02472E+03  2.842E+00  4.121E+01  4.200E-01  7.444E-01
   1   13    5     8     2    1.5318E+02  3.4101E-01   1.5284E+02  0.000E+00  0.000E+00  0.000E+00  1.01846E+03  2.838E+00  4.115E+01  4.193E-01  2.711E-01
   1   13    4     8     3    1.5284E+02 -1.2528E+00   1.5409E+02  0.000E+00  0.000E+00  0.000E+00  1.01222E+03  2.841E+00  4.120E+01  4.198E+00 -9.948E-02
   1   13    3     8     4    1.5409E+02 -2.4451E+00   1.5654E+02  0.000E+00  0.000E+00  0.000E+00  1.00598E+03  2.854E+00  4.138E+01  4.217E+00 -1.933E-01
   1   13    2     8     5    1.5654E+02 -1.9107E+00   1.5845E+02  0.000E+00  0.000E+00  0.000E+00  9.99744E+02  2.869E+00  4.160E+01  4.239E+00 -1.502E-01
   1   13    1     8     6    1.5845E+02 -8.5334E-01   1.5930E+02  0.000E+00  0.000E+00  0.000E+00  9.94753E+02  2.878E+00  4.173E+01  2.552E+00 -1.115E-01
   1    6    8     9     1    6.4003E+00  0.0000E+00   6.4003E+00  0.000E+00  0.000E+00  0.000E+00  1.07891E+03  4.123E-01  4.000E+00  0.000E+00  1.137E+00





UNSATURATED ZONE PACKAGE VOLUMETRIC BUDGET FOR  TIME STEP    30 STRESS PERIOD   21
  ------------------------------------------------------------------------------



     CUMULATIVE VOLUMES      L**3       RATES FOR THIS TIME STEP      L**3/T
     ------------------                 ------------------------

           IN:                                      IN:
           ---                                      ---
        INFILTRATION =    99289990.9724          INFILTRATION =           6.4005

          OUT:                                     OUT:
          ----                                     ----
              UZF ET =    80629424.7911                UZF ET =           6.3232
        UZF RECHARGE =     3030608.8499          UZF RECHARGE =           0.0157

            IN - OUT =    15629957.3314              IN - OUT =           0.0615

          STORAGE:                                 STORAGE:
          --------                                 --------
      STORAGE CHANGE =    15660071.6050        STORAGE CHANGE =           0.0607

 PERCENT DISCREPANCY IS DIFFERENCE BETWEEN IN-OUT MINUS CHANGE IN STORAGE
 DIVIDED BY THE AVERAGE OF IN AND OUT TIMES 100

 PERCENT DISCREPANCY =          -0.01     PERCENT DISCREPANCY =           0.01






1
  VOLUMETRIC BUDGET FOR ENTIRE MODEL AT END OF TIME STEP   30, STRESS PERIOD  21
  ------------------------------------------------------------------------------

     CUMULATIVE VOLUMES      L**3       RATES FOR THIS TIME STEP      L**3/T
     ------------------                 ------------------------

           IN:                                      IN:
           ---                                      ---
    AWU WELLS            =    15764394.0000      AWU WELLS            =           0.0000
    DIVERSION SEGMENTS   =    83452400.0000      DIVERSION SEGMENTS   =           6.4005
    GW IRRIGATION        =           0.0000      GW IRRIGATION        =           0.0000
    SW IRRIGATION        =           0.0000      SW IRRIGATION        =           0.0000
    EFFICIENCY FACTOR GW =           0.0000      EFFICIENCY FACTOR GW =           0.0000
    EFFICIENCY FACTOR SW =           0.0000      EFFICIENCY FACTOR SW =           0.0000

                TOTAL IN =    99216792.0000                  TOTAL IN =           6.4005

          OUT:                                     OUT:
          ----                                     ----
    AWU WELLS            =           0.0000      AWU WELLS            =           0.0000
    DIVERSION SEGMENTS   =           0.0000      DIVERSION SEGMENTS   =           0.0000
    GW IRRIGATION        =    15764394.0000      GW IRRIGATION        =           0.0000
    SW IRRIGATION        =    83452400.0000      SW IRRIGATION        =           6.4005
    EFFICIENCY FACTOR GW =           0.0000      EFFICIENCY FACTOR GW =           0.0000
    EFFICIENCY FACTOR SW =           0.0000      EFFICIENCY FACTOR SW =           0.0000

               TOTAL OUT =    99216792.0000                 TOTAL OUT =           6.4005

                IN - OUT =           0.0000                  IN - OUT =           0.0000

     PERCENT DISCREPANCY =           0.00         PERCENT DISCREPANCY =           0.00



1
  VOLUMETRIC BUDGET FOR ENTIRE MODEL AT END OF TIME STEP   30, STRESS PERIOD  21
  ------------------------------------------------------------------------------

     CUMULATIVE VOLUMES      L**3       RATES FOR THIS TIME STEP      L**3/T
     ------------------                 ------------------------

           IN:                                      IN:
           ---                                      ---
             STORAGE     =    94739872.0000               STORAGE     =           3.7725
       CONSTANT HEAD     =           0.0000         CONSTANT HEAD     =           0.0000
     HEAD DEP BOUNDS     =    15052903.0000       HEAD DEP BOUNDS     =           0.2860
      STREAM LEAKAGE     =   625107328.0000        STREAM LEAKAGE     =          11.1509
        UZF RECHARGE     =     3030608.7500          UZF RECHARGE     =       1.5747E-02
               GW ET     =           0.0000                 GW ET     =           0.0000
     SURFACE LEAKAGE     =           0.0000       SURFACE LEAKAGE     =           0.0000
    AWU WELLS            =           0.0000      AWU WELLS            =           0.0000

                TOTAL IN =   737930688.0000                  TOTAL IN =          15.2251

          OUT:                                     OUT:
          ----                                     ----
             STORAGE     =    99225128.0000               STORAGE     =           0.7605
       CONSTANT HEAD     =           0.0000         CONSTANT HEAD     =           0.0000
     HEAD DEP BOUNDS     =    15113769.0000       HEAD DEP BOUNDS     =           0.2693
      STREAM LEAKAGE     =   504908000.0000        STREAM LEAKAGE     =           6.5603
        UZF RECHARGE     =           0.0000          UZF RECHARGE     =           0.0000
               GW ET     =   102922008.0000                 GW ET     =           7.6327
     SURFACE LEAKAGE     =           0.0000       SURFACE LEAKAGE     =           0.0000
    AWU WELLS            =    15764394.0000      AWU WELLS            =           0.0000

               TOTAL OUT =   737933312.0000                 TOTAL OUT =          15.2228

                IN - OUT =       -2624.0000                  IN - OUT =       2.3308E-03

     PERCENT DISCREPANCY =          -0.00         PERCENT DISCREPANCY =           0.02






         TIME SUMMARY AT END OF TIME STEP   30 IN STRESS PERIOD   21
                    SECONDS     MINUTES      HOURS       DAYS        YEARS
                    -----------------------------------------------------------
   TIME STEP LENGTH  87600.      1460.0      24.333      1.0139     2.77588E-03
 STRESS PERIOD TIME 2.62800E+06  43800.      730.00      30.417     8.32763E-02
         TOTAL TIME 5.26464E+07 8.77440E+05  14624.      609.33      1.6683    
1
1
                            STRESS PERIOD NO.   22, LENGTH =   2628000.    
                            -----------------------------------------------

                              NUMBER OF TIME STEPS =    30

                               MULTIPLIER FOR DELT =     1.000

                            INITIAL TIME STEP SIZE =   87600.00    

 REUSING NON-PARAMETER GHB CELLS FROM LAST STRESS PERIOD

      2 GHB CELLS

 REUSING STREAM SEGMENT DATA FROM LAST STRESS PERIOD



            AREAL INFILTRATION RATE
 READING ON UNIT   19 WITH FORMAT: (10F4.0)            

            1           2           3           4           5           6           7           8           9          10
 ........................................................................................................................
   1    0.000       0.000       0.000       0.000       0.000       0.000       0.000       0.000       0.000       0.000    
   2    0.000       0.000       0.000       0.000       0.000       0.000       0.000       0.000       0.000       0.000    
   3    0.000       0.000       0.000       0.000       0.000       0.000       0.000       0.000       0.000       0.000    
   4    0.000       0.000       0.000       0.000       0.000       0.000       0.000       0.000       0.000       0.000    
   5    0.000       0.000       0.000       0.000       0.000       0.000       0.000       0.000       0.000       0.000    
   6    0.000       0.000       0.000       0.000       0.000       0.000       0.000       0.000       0.000       0.000    
   7    0.000       0.000       0.000       0.000       0.000       0.000       0.000       0.000       0.000       0.000    
   8    0.000       0.000       0.000       0.000       0.000       0.000       0.000       0.000       0.000       0.000    
   9    0.000       0.000       0.000       0.000       0.000       0.000       0.000       0.000       0.000       0.000    
  10    0.000       0.000       0.000       0.000       0.000       0.000       0.000       0.000       0.000       0.000    
  11    0.000       0.000       0.000       0.000       0.000       0.000       0.000       0.000       0.000       0.000    
  12    0.000       0.000       0.000       0.000       0.000       0.000       0.000       0.000       0.000       0.000    
  13    0.000       0.000       0.000       0.000       0.000       0.000       0.000       0.000       0.000       0.000    
  14    0.000       0.000       0.000       0.000       0.000       0.000       0.000       0.000       0.000       0.000    
  15    0.000       0.000       0.000       0.000       0.000       0.000       0.000       0.000       0.000       0.000    

                  ET RATE =  2.500000E-08

 USING ET EXTINCTION DEPTH FROM PREVIOUS STRESS PERIOD. CURRENT PERIOD IS:      22

 USING EXTINCTION WATER CONTENT FROM PREVIOUS STRESS PERIOD. CURRENT PERIOD IS:      22

 PROCESSING AWU STRESS PERIOD DATA

 READING AWU STRESS PERIOD DATA

 READING IRRIGATION STREAM

 READING IRRIGATION WELL

 READING SUPPLEMENTAL WEL

 END PROCESSING AWU STRESS PERIOD DATA OPTIONS
 
 SOLVING FOR HEAD 
                                                   Max.-Head-Change                         Max.-Flux-Residual
  Residual-Control   Outer-Iter.   Inner-Iter.     Column Row Layer    Maximum-Head-Change  Column Row Layer    Maximum-Flux-Residual          L2-NORM 
          0                 1           2             3   13     1       0.1811382054E-01       3   13    1         0.1032066975E+01      0.1873322965E+01
          0                 2           2             3   13     1      -0.1749353588E-02       3   13    1        -0.1006040293E+00      0.1832289593E+00
          0                 3           2             3   13     1       0.1516070435E-03       3   13    1         0.8800187671E-02      0.1611744363E-01
          0                 4           1             4   13     1      -0.1168809386E-04       4   13    1        -0.6846513625E-03      0.1260078779E-02

    ------------------------------------------------
       NWT REQUIRED            4 OUTER ITERATIONS 
       AND A TOTAL OF          7 INNER ITERATIONS.
    ------------------------------------------------

 NO OUTPUT CONTROL FOR STRESS PERIOD   22   TIME STEP    1
 
 SOLVING FOR HEAD 
                                                   Max.-Head-Change                         Max.-Flux-Residual
  Residual-Control   Outer-Iter.   Inner-Iter.     Column Row Layer    Maximum-Head-Change  Column Row Layer    Maximum-Flux-Residual          L2-NORM 
          0                 1           2             3   13     1       0.1655746136E-01       3   13    1         0.9432951056E+00      0.1747771517E+01
          0                 2           2             3   13     1      -0.1599208956E-02       3   13    1        -0.9195978808E-01      0.1709875947E+00
          0                 3           2             3   13     1       0.1386129832E-03       3   13    1         0.8045099992E-02      0.1504560124E-01
          0                 4           1             4   13     1      -0.1066780292E-04       4   13    1        -0.6245625063E-03      0.1176105361E-02

    ------------------------------------------------
       NWT REQUIRED            4 OUTER ITERATIONS 
       AND A TOTAL OF          7 INNER ITERATIONS.
    ------------------------------------------------

 NO OUTPUT CONTROL FOR STRESS PERIOD   22   TIME STEP    2
 
 SOLVING FOR HEAD 
                                                   Max.-Head-Change                         Max.-Flux-Residual
  Residual-Control   Outer-Iter.   Inner-Iter.     Column Row Layer    Maximum-Head-Change  Column Row Layer    Maximum-Flux-Residual          L2-NORM 
          0                 1           2             3   13     1       0.1513634402E-01       3   13    1         0.8622403526E+00      0.1632845798E+01
          0                 2           2             3   13     1      -0.1462078195E-02       3   13    1        -0.8406515530E-01      0.1597824292E+00
          0                 3           2             3   13     1       0.1267490787E-03       3   13    1         0.7355729016E-02      0.1406474915E-01
          0                 4           1             4   13     1      -0.9765478952E-05       4   13    1        -0.5714505278E-03      0.1100966637E-02

    ------------------------------------------------
       NWT REQUIRED            4 OUTER ITERATIONS 
       AND A TOTAL OF          7 INNER ITERATIONS.
    ------------------------------------------------

 NO OUTPUT CONTROL FOR STRESS PERIOD   22   TIME STEP    3
 
 SOLVING FOR HEAD 
                                                   Max.-Head-Change                         Max.-Flux-Residual
  Residual-Control   Outer-Iter.   Inner-Iter.     Column Row Layer    Maximum-Head-Change  Column Row Layer    Maximum-Flux-Residual          L2-NORM 
          0                 1           2             3   13     1       0.1383865762E-01       3   13    1         0.7882289516E+00      0.1527559469E+01
          0                 2           2             3   13     1      -0.1336797360E-02       3   13    1        -0.7685304537E-01      0.1495171768E+00
          0                 3           2             3   13     1       0.1158925165E-03       3   13    1         0.6724900798E-02      0.1316612798E-01
          0                 4           1             4   13     1      -0.8918407555E-05       3   13    1        -0.5222482605E-03      0.1030707356E-02

    ------------------------------------------------
       NWT REQUIRED            4 OUTER ITERATIONS 
       AND A TOTAL OF          7 INNER ITERATIONS.
    ------------------------------------------------

 NO OUTPUT CONTROL FOR STRESS PERIOD   22   TIME STEP    4
 
 SOLVING FOR HEAD 
                                                   Max.-Head-Change                         Max.-Flux-Residual
  Residual-Control   Outer-Iter.   Inner-Iter.     Column Row Layer    Maximum-Head-Change  Column Row Layer    Maximum-Flux-Residual          L2-NORM 
          0                 1           2             3   13     1       0.1362169861E-01       3   13    1         0.7755875969E+00      0.1730380515E+01
          0                 2           2             3   13     1      -0.1315148148E-02       3   13    1        -0.7557985759E-01      0.1700840698E+00
          0                 3           2             3   13     1       0.1139394172E-03       3   13    1         0.6608970421E-02      0.1504278569E-01
          0                 4           1             4   13     1      -0.8907780605E-05       4   13    1        -0.5212686874E-03      0.1182990617E-02

    ------------------------------------------------
       NWT REQUIRED            4 OUTER ITERATIONS 
       AND A TOTAL OF          7 INNER ITERATIONS.
    ------------------------------------------------

 NO OUTPUT CONTROL FOR STRESS PERIOD   22   TIME STEP    5
 
 SOLVING FOR HEAD 
                                                   Max.-Head-Change                         Max.-Flux-Residual
  Residual-Control   Outer-Iter.   Inner-Iter.     Column Row Layer    Maximum-Head-Change  Column Row Layer    Maximum-Flux-Residual          L2-NORM 
          0                 1           2             1   13     1       0.1275675650E-01       3   13    1         0.7248555802E+00      0.1455125119E+01
          0                 2           2             3   13     1      -0.1229216667E-02       3   13    1        -0.7062821170E-01      0.1423025816E+00
          0                 3           1             4   13     1       0.1065329152E-03       4   13    1         0.6175369079E-02      0.1251743747E-01
          0                 4           1             4   13     1      -0.8324814260E-05       4   13    1        -0.4870142675E-03      0.9772883678E-03

    ------------------------------------------------
       NWT REQUIRED            4 OUTER ITERATIONS 
       AND A TOTAL OF          6 INNER ITERATIONS.
    ------------------------------------------------

 NO OUTPUT CONTROL FOR STRESS PERIOD   22   TIME STEP    6
 
 SOLVING FOR HEAD 
                                                   Max.-Head-Change                         Max.-Flux-Residual
  Residual-Control   Outer-Iter.   Inner-Iter.     Column Row Layer    Maximum-Head-Change  Column Row Layer    Maximum-Flux-Residual          L2-NORM 
          0                 1           2             1   13     1       0.1215336512E-01       1   13    1         0.6641685714E+00      0.1364628360E+01
          0                 2           2             1   13     1      -0.1167328777E-02       3   13    1        -0.6461352381E-01      0.1334950152E+00
          0                 3           1             1   13     1       0.1005887325E-03       3   13    1         0.5649905528E-02      0.1174966295E-01
          0                 4           1             1   13     1      -0.7690033263E-05       4   13    1        -0.4459315505E-03      0.9192201027E-03

    ------------------------------------------------
       NWT REQUIRED            4 OUTER ITERATIONS 
       AND A TOTAL OF          6 INNER ITERATIONS.
    ------------------------------------------------

 NO OUTPUT CONTROL FOR STRESS PERIOD   22   TIME STEP    7
 
 SOLVING FOR HEAD 
                                                   Max.-Head-Change                         Max.-Flux-Residual
  Residual-Control   Outer-Iter.   Inner-Iter.     Column Row Layer    Maximum-Head-Change  Column Row Layer    Maximum-Flux-Residual          L2-NORM 
          0                 1           2             1   13     1       0.1157708137E-01       1   13    1         0.6326951495E+00      0.1281496766E+01
          0                 2           2             1   13     1      -0.1113066908E-02       1   13    1        -0.6139871411E-01      0.1254027724E+00
          0                 3           1             1   13     1       0.9602202658E-04       1   13    1         0.5346285283E-02      0.1104347269E-01

    ------------------------------------------------
       NWT REQUIRED            3 OUTER ITERATIONS 
       AND A TOTAL OF          5 INNER ITERATIONS.
    ------------------------------------------------

 NO OUTPUT CONTROL FOR STRESS PERIOD   22   TIME STEP    8
 
 SOLVING FOR HEAD 
                                                   Max.-Head-Change                         Max.-Flux-Residual
  Residual-Control   Outer-Iter.   Inner-Iter.     Column Row Layer    Maximum-Head-Change  Column Row Layer    Maximum-Flux-Residual          L2-NORM 
          0                 1           2             1   13     1       0.1102652482E-01       1   13    1         0.6026263063E+00      0.1204923785E+01
          0                 2           2             1   13     1      -0.1061167689E-02       1   13    1        -0.5853731261E-01      0.1178625586E+00
          0                 3           1             1   13     1       0.9163942687E-04       1   13    1         0.5102360314E-02      0.1038454273E-01

    ------------------------------------------------
       NWT REQUIRED            3 OUTER ITERATIONS 
       AND A TOTAL OF          5 INNER ITERATIONS.
    ------------------------------------------------

 NO OUTPUT CONTROL FOR STRESS PERIOD   22   TIME STEP    9
 
 SOLVING FOR HEAD 
                                                   Max.-Head-Change                         Max.-Flux-Residual
  Residual-Control   Outer-Iter.   Inner-Iter.     Column Row Layer    Maximum-Head-Change  Column Row Layer    Maximum-Flux-Residual          L2-NORM 
          0                 1           2             1   13     1       0.1050079550E-01       1   13    1         0.5739130000E+00      0.1134619104E+01
          0                 2           2             1   13     1      -0.1011410113E-02       1   13    1        -0.5579409020E-01      0.1111047335E+00
          0                 3           1             1   13     1       0.8742303616E-04       1   13    1         0.4867706677E-02      0.9793855329E-02

    ------------------------------------------------
       NWT REQUIRED            3 OUTER ITERATIONS 
       AND A TOTAL OF          5 INNER ITERATIONS.
    ------------------------------------------------

 NO OUTPUT CONTROL FOR STRESS PERIOD   22   TIME STEP   10
 
 SOLVING FOR HEAD 
                                                   Max.-Head-Change                         Max.-Flux-Residual
  Residual-Control   Outer-Iter.   Inner-Iter.     Column Row Layer    Maximum-Head-Change  Column Row Layer    Maximum-Flux-Residual          L2-NORM 
          0                 1           2             1   13     1       0.9999085222E-02       1   13    1         0.5465108951E+00      0.1069776230E+01
          0                 2           2             1   13     1      -0.9638812284E-03       1   13    1        -0.5317365892E-01      0.1047910686E+00
          0                 3           1             1   13     1       0.8340040495E-04       1   13    1         0.4643826952E-02      0.9243033089E-02

    ------------------------------------------------
       NWT REQUIRED            3 OUTER ITERATIONS 
       AND A TOTAL OF          5 INNER ITERATIONS.
    ------------------------------------------------

 NO OUTPUT CONTROL FOR STRESS PERIOD   22   TIME STEP   11
 
 SOLVING FOR HEAD 
                                                   Max.-Head-Change                         Max.-Flux-Residual
  Residual-Control   Outer-Iter.   Inner-Iter.     Column Row Layer    Maximum-Head-Change  Column Row Layer    Maximum-Flux-Residual          L2-NORM 
          0                 1           2             1   13     1       0.9520332172E-02       1   13    1         0.5203620871E+00      0.1009978882E+01
          0                 2           2             1   13     1      -0.9184378233E-03       1   13    1        -0.5066820750E-01      0.9896641005E-01
          0                 3           1             1   13     1       0.7952257450E-04       1   13    1         0.4428009303E-02      0.8733904074E-02

    ------------------------------------------------
       NWT REQUIRED            3 OUTER ITERATIONS 
       AND A TOTAL OF          5 INNER ITERATIONS.
    ------------------------------------------------

 NO OUTPUT CONTROL FOR STRESS PERIOD   22   TIME STEP   12
 
 SOLVING FOR HEAD 
                                                   Max.-Head-Change                         Max.-Flux-Residual
  Residual-Control   Outer-Iter.   Inner-Iter.     Column Row Layer    Maximum-Head-Change  Column Row Layer    Maximum-Flux-Residual          L2-NORM 
          0                 1           2             1   13     1       0.8263062681E-02       1   13    1         0.4518607705E+00      0.8549139002E+00
          0                 2           2             5   13     1      -0.7226432211E-03       5   13    1        -0.3963673531E-01      0.7249920586E-01
          0                 3           1             5   13     1       0.6443873127E-04       5   13    1         0.3567073580E-02      0.6462985391E-02

    ------------------------------------------------
       NWT REQUIRED            3 OUTER ITERATIONS 
       AND A TOTAL OF          5 INNER ITERATIONS.
    ------------------------------------------------

 NO OUTPUT CONTROL FOR STRESS PERIOD   22   TIME STEP   13
 
 SOLVING FOR HEAD 
                                                   Max.-Head-Change                         Max.-Flux-Residual
  Residual-Control   Outer-Iter.   Inner-Iter.     Column Row Layer    Maximum-Head-Change  Column Row Layer    Maximum-Flux-Residual          L2-NORM 
          0                 1           2             1   13     1       0.7855746035E-02       1   13    1         0.4295946542E+00      0.8115446201E+00
          0                 2           2             5   13     1      -0.6860696961E-03       5   13    1        -0.3767171232E-01      0.6699891073E-01
          0                 3           1             5   13     1       0.6117945256E-04       5   13    1         0.3390318309E-02      0.5985012598E-02

    ------------------------------------------------
       NWT REQUIRED            3 OUTER ITERATIONS 
       AND A TOTAL OF          5 INNER ITERATIONS.
    ------------------------------------------------

 NO OUTPUT CONTROL FOR STRESS PERIOD   22   TIME STEP   14
 
 SOLVING FOR HEAD 
                                                   Max.-Head-Change                         Max.-Flux-Residual
  Residual-Control   Outer-Iter.   Inner-Iter.     Column Row Layer    Maximum-Head-Change  Column Row Layer    Maximum-Flux-Residual          L2-NORM 
          0                 1           2             1   13     1       0.7466928299E-02       1   13    1         0.4083409116E+00      0.7711864103E+00
          0                 2           2             5   13     1      -0.6542634819E-03       5   13    1        -0.3595063887E-01      0.6300500805E-01
          0                 3           1             5   13     1       0.5834416105E-04       5   13    1         0.3235457996E-02      0.5636298667E-02

    ------------------------------------------------
       NWT REQUIRED            3 OUTER ITERATIONS 
       AND A TOTAL OF          5 INNER ITERATIONS.
    ------------------------------------------------

 NO OUTPUT CONTROL FOR STRESS PERIOD   22   TIME STEP   15
 
 SOLVING FOR HEAD 
                                                   Max.-Head-Change                         Max.-Flux-Residual
  Residual-Control   Outer-Iter.   Inner-Iter.     Column Row Layer    Maximum-Head-Change  Column Row Layer    Maximum-Flux-Residual          L2-NORM 
          0                 1           2             1   13     1       0.7096228799E-02       1   13    1         0.3880781141E+00      0.7336822790E+00
          0                 2           2             5   13     1      -0.6236832354E-03       5   13    1        -0.3429504201E-01      0.5950051490E-01
          0                 3           1             5   13     1       0.5561890031E-04       5   13    1         0.3086515581E-02      0.5330833303E-02

    ------------------------------------------------
       NWT REQUIRED            3 OUTER ITERATIONS 
       AND A TOTAL OF          5 INNER ITERATIONS.
    ------------------------------------------------

 NO OUTPUT CONTROL FOR STRESS PERIOD   22   TIME STEP   16
 
 SOLVING FOR HEAD 
                                                   Max.-Head-Change                         Max.-Flux-Residual
  Residual-Control   Outer-Iter.   Inner-Iter.     Column Row Layer    Maximum-Head-Change  Column Row Layer    Maximum-Flux-Residual          L2-NORM 
          0                 1           2             1   13     1       0.6742815734E-02       1   13    1         0.3687606441E+00      0.6988039404E+00
          0                 2           2             5   13     1      -0.5943164864E-03       5   13    1        -0.3270438287E-01      0.5646230121E-01
          0                 3           1             5   13     1       0.5300113626E-04       5   13    1         0.2943395023E-02      0.5065295156E-02

    ------------------------------------------------
       NWT REQUIRED            3 OUTER ITERATIONS 
       AND A TOTAL OF          5 INNER ITERATIONS.
    ------------------------------------------------

 NO OUTPUT CONTROL FOR STRESS PERIOD   22   TIME STEP   17
 
 SOLVING FOR HEAD 
                                                   Max.-Head-Change                         Max.-Flux-Residual
  Residual-Control   Outer-Iter.   Inner-Iter.     Column Row Layer    Maximum-Head-Change  Column Row Layer    Maximum-Flux-Residual          L2-NORM 
          0                 1           2             1   13     1       0.6405917737E-02       1   13    1         0.3503462433E+00      0.6663431642E+00
          0                 2           2             5   13     1      -0.5660947080E-03       5   13    1        -0.3117509214E-01      0.5386411577E-01
          0                 3           1             5   13     1       0.5048467755E-04       5   13    1         0.2805760772E-02      0.4839380561E-02

    ------------------------------------------------
       NWT REQUIRED            3 OUTER ITERATIONS 
       AND A TOTAL OF          5 INNER ITERATIONS.
    ------------------------------------------------

 NO OUTPUT CONTROL FOR STRESS PERIOD   22   TIME STEP   18
 
 SOLVING FOR HEAD 
                                                   Max.-Head-Change                         Max.-Flux-Residual
  Residual-Control   Outer-Iter.   Inner-Iter.     Column Row Layer    Maximum-Head-Change  Column Row Layer    Maximum-Flux-Residual          L2-NORM 
          0                 1           2             1   13     1       0.6084785720E-02       1   13    1         0.3327938651E+00      0.6361055319E+00
          0                 2           2             5   13     1      -0.5389951052E-03       5   13    1        -0.2970601996E-01      0.5167839999E-01
          0                 3           1             5   13     1       0.4806960411E-04       5   13    1         0.2673593930E-02      0.4648964434E-02

    ------------------------------------------------
       NWT REQUIRED            3 OUTER ITERATIONS 
       AND A TOTAL OF          5 INNER ITERATIONS.
    ------------------------------------------------

 NO OUTPUT CONTROL FOR STRESS PERIOD   22   TIME STEP   19
 
 SOLVING FOR HEAD 
                                                   Max.-Head-Change                         Max.-Flux-Residual
  Residual-Control   Outer-Iter.   Inner-Iter.     Column Row Layer    Maximum-Head-Change  Column Row Layer    Maximum-Flux-Residual          L2-NORM 
          0                 1           2             1   13     1       0.6565990310E-02       1   13    1         0.3588566481E+00      0.6960630518E+00
          0                 2           2             1   13     1      -0.6353860378E-03       1   13    1        -0.3504922828E-01      0.6828607446E-01
          0                 3           1             1   13     1       0.5520463709E-04       1   13    1         0.3073522182E-02      0.6044894970E-02

    ------------------------------------------------
       NWT REQUIRED            3 OUTER ITERATIONS 
       AND A TOTAL OF          5 INNER ITERATIONS.
    ------------------------------------------------

 NO OUTPUT CONTROL FOR STRESS PERIOD   22   TIME STEP   20
 
 SOLVING FOR HEAD 
                                                   Max.-Head-Change                         Max.-Flux-Residual
  Residual-Control   Outer-Iter.   Inner-Iter.     Column Row Layer    Maximum-Head-Change  Column Row Layer    Maximum-Flux-Residual          L2-NORM 
          0                 1           2             1   13     1       0.6249624563E-02       1   13    1         0.3415829161E+00      0.6632314003E+00
          0                 2           2             1   13     1      -0.6051228030E-03       1   13    1        -0.3338139137E-01      0.6508684240E-01
          0                 3           1             1   13     1       0.5260755276E-04       1   13    1         0.2929057771E-02      0.5764357869E-02

    ------------------------------------------------
       NWT REQUIRED            3 OUTER ITERATIONS 
       AND A TOTAL OF          5 INNER ITERATIONS.
    ------------------------------------------------

 NO OUTPUT CONTROL FOR STRESS PERIOD   22   TIME STEP   21
 
 SOLVING FOR HEAD 
                                                   Max.-Head-Change                         Max.-Flux-Residual
  Residual-Control   Outer-Iter.   Inner-Iter.     Column Row Layer    Maximum-Head-Change  Column Row Layer    Maximum-Flux-Residual          L2-NORM 
          0                 1           2             1   13     1       0.5947893442E-02       1   13    1         0.3251072478E+00      0.6327402934E+00
          0                 2           2             1   13     1      -0.5762269826E-03       1   13    1        -0.3178882285E-01      0.6210577781E-01
          0                 3           1             1   13     1       0.5013317391E-04       1   13    1         0.2791408498E-02      0.5503912719E-02

    ------------------------------------------------
       NWT REQUIRED            3 OUTER ITERATIONS 
       AND A TOTAL OF          5 INNER ITERATIONS.
    ------------------------------------------------

 NO OUTPUT CONTROL FOR STRESS PERIOD   22   TIME STEP   22
 
 SOLVING FOR HEAD 
                                                   Max.-Head-Change                         Max.-Flux-Residual
  Residual-Control   Outer-Iter.   Inner-Iter.     Column Row Layer    Maximum-Head-Change  Column Row Layer    Maximum-Flux-Residual          L2-NORM 
          0                 1           2             1   13     1       0.5660194950E-02       1   13    1         0.3093968779E+00      0.6043980527E+00
          0                 2           2             1   13     1      -0.5486568309E-03       1   13    1        -0.3026923629E-01      0.5933828873E-01
          0                 3           1             1   13     1       0.4776965051E-04       1   13    1         0.2659922815E-02      0.5262003876E-02

    ------------------------------------------------
       NWT REQUIRED            3 OUTER ITERATIONS 
       AND A TOTAL OF          5 INNER ITERATIONS.
    ------------------------------------------------

 NO OUTPUT CONTROL FOR STRESS PERIOD   22   TIME STEP   23
 
 SOLVING FOR HEAD 
                                                   Max.-Head-Change                         Max.-Flux-Residual
  Residual-Control   Outer-Iter.   Inner-Iter.     Column Row Layer    Maximum-Head-Change  Column Row Layer    Maximum-Flux-Residual          L2-NORM 
          0                 1           2             1   13     1       0.5385894169E-02       1   13    1         0.2944172261E+00      0.5780375486E+00
          0                 2           2             1   13     1      -0.5223097021E-03       1   13    1        -0.2881698209E-01      0.5676012608E-01
          0                 3           1             1   13     1       0.4550403452E-04       1   13    1         0.2533873942E-02      0.5036620129E-02

    ------------------------------------------------
       NWT REQUIRED            3 OUTER ITERATIONS 
       AND A TOTAL OF          5 INNER ITERATIONS.
    ------------------------------------------------

 NO OUTPUT CONTROL FOR STRESS PERIOD   22   TIME STEP   24
 
 SOLVING FOR HEAD 
                                                   Max.-Head-Change                         Max.-Flux-Residual
  Residual-Control   Outer-Iter.   Inner-Iter.     Column Row Layer    Maximum-Head-Change  Column Row Layer    Maximum-Flux-Residual          L2-NORM 
          0                 1           2             1   13     1       0.5124408070E-02       1   13    1         0.2801365469E+00      0.5534837731E+00
          0                 2           2             1   13     1      -0.4971941411E-03       1   13    1        -0.2743253589E-01      0.5435917788E-01
          0                 3           1             1   13     1       0.4332743361E-04       1   13    1         0.2412776453E-02      0.4825572303E-02

    ------------------------------------------------
       NWT REQUIRED            3 OUTER ITERATIONS 
       AND A TOTAL OF          5 INNER ITERATIONS.
    ------------------------------------------------

 NO OUTPUT CONTROL FOR STRESS PERIOD   22   TIME STEP   25
 
 SOLVING FOR HEAD 
                                                   Max.-Head-Change                         Max.-Flux-Residual
  Residual-Control   Outer-Iter.   Inner-Iter.     Column Row Layer    Maximum-Head-Change  Column Row Layer    Maximum-Flux-Residual          L2-NORM 
          0                 1           2             1   13     1       0.4875196397E-02       1   13    1         0.2665254188E+00      0.5305993439E+00
          0                 2           2             1   13     1      -0.4732129539E-03       1   13    1        -0.2611055189E-01      0.5211750052E-01
          0                 3           1             5   13     1       0.4157868496E-04       1   13    1         0.2297039091E-02      0.4628309129E-02

    ------------------------------------------------
       NWT REQUIRED            3 OUTER ITERATIONS 
       AND A TOTAL OF          5 INNER ITERATIONS.
    ------------------------------------------------

 NO OUTPUT CONTROL FOR STRESS PERIOD   22   TIME STEP   26
 
 SOLVING FOR HEAD 
                                                   Max.-Head-Change                         Max.-Flux-Residual
  Residual-Control   Outer-Iter.   Inner-Iter.     Column Row Layer    Maximum-Head-Change  Column Row Layer    Maximum-Flux-Residual          L2-NORM 
          0                 1           2             1   13     1       0.4637674994E-02       1   13    1         0.2535520200E+00      0.5092570261E+00
          0                 2           2             1   13     1      -0.4503551839E-03       1   13    1        -0.2485042848E-01      0.5002730965E-01
          0                 3           1             5   13     1       0.3996978297E-04       5   13    1         0.2201713879E-02      0.4445378451E-02

    ------------------------------------------------
       NWT REQUIRED            3 OUTER ITERATIONS 
       AND A TOTAL OF          5 INNER ITERATIONS.
    ------------------------------------------------

 NO OUTPUT CONTROL FOR STRESS PERIOD   22   TIME STEP   27
 
 SOLVING FOR HEAD 
                                                   Max.-Head-Change                         Max.-Flux-Residual
  Residual-Control   Outer-Iter.   Inner-Iter.     Column Row Layer    Maximum-Head-Change  Column Row Layer    Maximum-Flux-Residual          L2-NORM 
          0                 1           2             1   13     1       0.4411392951E-02       1   13    1         0.2411918143E+00      0.4893260992E+00
          0                 2           2             5   13     1      -0.4309555386E-03       1   13    1        -0.2364909401E-01      0.4807327938E-01
          0                 3           1             5   13     1       0.3842023514E-04       5   13    1         0.2116477465E-02      0.4274343896E-02

    ------------------------------------------------
       NWT REQUIRED            3 OUTER ITERATIONS 
       AND A TOTAL OF          5 INNER ITERATIONS.
    ------------------------------------------------

 NO OUTPUT CONTROL FOR STRESS PERIOD   22   TIME STEP   28
 
 SOLVING FOR HEAD 
                                                   Max.-Head-Change                         Max.-Flux-Residual
  Residual-Control   Outer-Iter.   Inner-Iter.     Column Row Layer    Maximum-Head-Change  Column Row Layer    Maximum-Flux-Residual          L2-NORM 
          0                 1           2             1   13     1       0.4195761530E-02       1   13    1         0.2294127006E+00      0.4707031639E+00
          0                 2           2             5   13     1      -0.4142394010E-03       5   13    1        -0.2261056111E-01      0.4626305024E-01
          0                 3           1             5   13     1       0.3692921777E-04       5   13    1         0.2034375609E-02      0.4115767920E-02

    ------------------------------------------------
       NWT REQUIRED            3 OUTER ITERATIONS 
       AND A TOTAL OF          5 INNER ITERATIONS.
    ------------------------------------------------

 NO OUTPUT CONTROL FOR STRESS PERIOD   22   TIME STEP   29
 
 SOLVING FOR HEAD 
                                                   Max.-Head-Change                         Max.-Flux-Residual
  Residual-Control   Outer-Iter.   Inner-Iter.     Column Row Layer    Maximum-Head-Change  Column Row Layer    Maximum-Flux-Residual          L2-NORM 
          0                 1           2             5   13     1       0.3828676170E-02       5   13    1         0.2078769977E+00      0.4460870264E+00
          0                 2           2             5   13     1      -0.3793158362E-03       5   13    1        -0.2078472567E-01      0.4408678577E-01
          0                 3           1             5   13     1       0.3382306531E-04       5   13    1         0.1870422485E-02      0.3949370989E-02

    ------------------------------------------------
       NWT REQUIRED            3 OUTER ITERATIONS 
       AND A TOTAL OF          5 INNER ITERATIONS.
    ------------------------------------------------

 NO OUTPUT CONTROL FOR STRESS PERIOD   22   TIME STEP   30



 STREAM LISTING     PERIOD     22   STEP       30

 LAYER ROW COL. STREAM  RCH.  FLOW INTO     FLOW TO   FLOW OUT OF   OVRLND.     DIRECT     STREAM       STREAM     STREAM     STREAM   STREAMBED  STREAMBED
                SEG.NO.  NO.  STRM. RCH.    AQUIFER    STRM. RCH.    RUNOFF     PRECIP       ET          HEAD       DEPTH      WIDTH   CONDCTNC.   GRADIENT

   1    1    1     1     1    4.0274E+00  8.8097E-02   3.9393E+00  0.000E+00  0.000E+00  0.000E+00  1.09375E+03  6.990E-01  5.293E+00  2.382E-02  1.233E+00
   1    2    2     1     2    3.9393E+00  1.3548E-01   3.8038E+00  0.000E+00  0.000E+00  0.000E+00  1.08875E+03  6.921E-01  5.242E+00  3.670E-02  1.231E+00
   1    3    3     1     3    3.8038E+00  1.1461E-01   3.6892E+00  0.000E+00  0.000E+00  0.000E+00  1.08310E+03  6.842E-01  5.185E+00  3.111E-02  1.228E+00
   1    3    4     1     4    3.6892E+00  1.0476E-01   3.5844E+00  0.000E+00  0.000E+00  0.000E+00  1.07809E+03  6.772E-01  5.133E+00  2.849E-02  1.226E+00
   1    4    5     2     1    1.5844E+00  2.5113E-01   1.3333E+00  0.000E+00  0.000E+00  0.000E+00  1.07215E+03  2.196E-01  1.200E+01  7.800E-02  1.073E+00
   1    5    6     2     2    1.3333E+00  1.9193E-01   1.1414E+00  0.000E+00  0.000E+00  0.000E+00  1.06671E+03  1.989E-01  1.200E+01  6.000E-02  1.066E+00
   1    6    6     2     3    1.1414E+00  1.9079E-01   9.5059E-01  0.000E+00  0.000E+00  0.000E+00  1.06197E+03  1.798E-01  1.200E+01  6.000E-02  1.060E+00
   1    7    6     2     4    9.5059E-01  1.8957E-01   7.6102E-01  0.000E+00  0.000E+00  0.000E+00  1.05723E+03  1.594E-01  1.200E+01  6.000E-02  1.053E+00
   1    8    6     2     5    7.6102E-01  1.8824E-01   5.7279E-01  0.000E+00  0.000E+00  0.000E+00  1.05250E+03  1.373E-01  1.200E+01  6.000E-02  1.046E+00
   1    3    5     3     1    2.0000E+00  2.8252E-01   1.7175E+00  0.000E+00  0.000E+00  0.000E+00  1.07555E+03  1.909E+00  9.636E+00  7.227E-02  1.955E+00
   1    3    6     3     2    1.7175E+00  2.4905E-01   1.4684E+00  0.000E+00  0.000E+00  0.000E+00  1.07264E+03  1.727E+00  8.909E+00  6.682E-02  1.864E+00
   1    3    7     3     3    1.4684E+00  1.9718E-01   1.2712E+00  0.000E+00  0.000E+00  0.000E+00  1.06987E+03  1.555E+00  8.218E+00  5.547E-02  1.777E+00
   1    4    8     3     4    1.2712E+00  2.2567E-01   1.0456E+00  0.000E+00  0.000E+00  0.000E+00  1.06682E+03  1.364E+00  7.455E+00  6.709E-02  1.682E+00
   1    5    8     3     5    1.0456E+00  1.5790E-01   8.8768E-01  0.000E+00  0.000E+00  0.000E+00  1.06362E+03  1.164E+00  6.655E+00  4.991E-02  1.582E+00
   1    6    8     3     6    8.8768E-01  5.5980E-02   8.3170E-01  0.000E+00  0.000E+00  0.000E+00  1.06158E+03  1.036E+00  6.145E+00  1.844E-02  1.518E+00
   1    5   10     4     1    1.0000E+01  9.0919E-02   9.9091E+00  0.000E+00  0.000E+00  0.000E+00  1.07836E+03  6.368E-01  1.000E+01  2.500E-02  1.212E+00
   1    5    9     4     2    9.9091E+00  1.8158E-01   9.7275E+00  0.000E+00  0.000E+00  0.000E+00  1.07154E+03  6.315E-01  1.000E+01  5.000E-02  1.211E+00
   1    6    8     4     3    9.7275E+00  1.2689E-01   9.6006E+00  0.000E+00  0.000E+00  0.000E+00  1.06381E+03  6.256E-01  1.000E+01  3.500E-02  1.209E+00
   1    6    8     5     1    1.0432E+01  2.2686E-01   1.0205E+01  0.000E+00  0.000E+00  0.000E+00  1.05868E+03  6.790E-01  1.542E+01  6.166E-02  1.226E+00
   1    7    7     5     2    1.0205E+01  2.7894E-01   9.9265E+00  0.000E+00  0.000E+00  0.000E+00  1.05417E+03  6.732E-01  1.519E+01  7.594E-02  1.224E+00
   1    8    7     5     3    9.9265E+00  1.9221E-01   9.7343E+00  0.000E+00  0.000E+00  0.000E+00  1.04992E+03  6.676E-01  1.497E+01  5.241E-02  1.223E+00
   1    8    6     5     4    9.7343E+00  1.3577E-01   9.5985E+00  0.000E+00  0.000E+00  0.000E+00  1.04691E+03  6.637E-01  1.482E+01  3.706E-02  1.221E+00
   1    9    6     6     1    1.0171E+01  2.2243E-01   9.9489E+00  0.000E+00  0.000E+00  0.000E+00  1.04343E+03  7.072E-01  1.200E+01  6.000E-02  1.236E+00
   1   10    7     6     2    9.9489E+00  2.2187E-01   9.7270E+00  0.000E+00  0.000E+00  0.000E+00  1.03888E+03  6.978E-01  1.200E+01  6.000E-02  1.233E+00
   1   11    7     6     3    9.7270E+00  2.2130E-01   9.5057E+00  0.000E+00  0.000E+00  0.000E+00  1.03432E+03  6.883E-01  1.200E+01  6.000E-02  1.229E+00
   1   12    7     6     4    9.5057E+00  2.2073E-01   9.2850E+00  0.000E+00  0.000E+00  0.000E+00  1.02977E+03  6.788E-01  1.200E+01  6.000E-02  1.226E+00
   1   13    7     6     5    9.2850E+00 -9.3074E-02   9.3781E+00  0.000E+00  0.000E+00  0.000E+00  1.02659E+03  6.760E-01  1.200E+01  2.400E-01 -1.293E-01
   1   14    9     7     1    1.5000E+02  1.3397E+00   1.4866E+02  0.000E+00  0.000E+00  0.000E+00  1.03987E+03  2.288E+00  5.529E+01  5.593E-01  7.985E-01
   1   13    8     7     2    1.4866E+02  1.8469E+00   1.4681E+02  0.000E+00  0.000E+00  0.000E+00  1.03478E+03  2.279E+00  5.526E+01  6.148E-01  1.001E+00
   1   13    7     7     3    1.4681E+02  1.5171E+00   1.4530E+02  0.000E+00  0.000E+00  0.000E+00  1.02969E+03  2.270E+00  5.522E+01  5.584E-01  9.056E-01
   1   13    6     8     1    1.5467E+02  9.2391E-01   1.5375E+02  0.000E+00  0.000E+00  0.000E+00  1.02472E+03  2.846E+00  4.127E+01  4.206E-01  7.323E-01
   1   13    5     8     2    1.5375E+02  2.5855E-01   1.5349E+02  0.000E+00  0.000E+00  0.000E+00  1.01847E+03  2.842E+00  4.121E+01  4.200E-01  2.052E-01
   1   13    4     8     3    1.5349E+02 -2.0061E+00   1.5550E+02  0.000E+00  0.000E+00  0.000E+00  1.01222E+03  2.848E+00  4.130E+01  4.209E+00 -1.589E-01
   1   13    3     8     4    1.5550E+02 -3.2084E+00   1.5871E+02  0.000E+00  0.000E+00  0.000E+00  1.00599E+03  2.866E+00  4.156E+01  4.235E+00 -2.525E-01
   1   13    2     8     5    1.5871E+02 -2.2714E+00   1.6098E+02  0.000E+00  0.000E+00  0.000E+00  9.99760E+02  2.885E+00  4.183E+01  4.263E+00 -1.776E-01
   1   13    1     8     6    1.6098E+02 -1.4071E+00   1.6238E+02  0.000E+00  0.000E+00  0.000E+00  9.94772E+02  2.897E+00  4.201E+01  2.569E+00 -1.826E-01
   1    6    8     9     1    0.0000E+00  0.0000E+00   0.0000E+00  0.000E+00  0.000E+00  0.000E+00  1.07850E+03  0.000E+00  4.000E+00  0.000E+00  1.000E+00





UNSATURATED ZONE PACKAGE VOLUMETRIC BUDGET FOR  TIME STEP    30 STRESS PERIOD   22
  ------------------------------------------------------------------------------



     CUMULATIVE VOLUMES      L**3       RATES FOR THIS TIME STEP      L**3/T
     ------------------                 ------------------------

           IN:                                      IN:
           ---                                      ---
        INFILTRATION =   102392681.9333          INFILTRATION =       0.0000E+00

          OUT:                                     OUT:
          ----                                     ----
              UZF ET =    86277885.3653                UZF ET =           2.2830
        UZF RECHARGE =     3060339.6797          UZF RECHARGE =           0.0081

            IN - OUT =    13054456.8884              IN - OUT =          -2.2912

          STORAGE:                                 STORAGE:
          --------                                 --------
      STORAGE CHANGE =    13085812.6663        STORAGE CHANGE =          -2.2911

 PERCENT DISCREPANCY IS DIFFERENCE BETWEEN IN-OUT MINUS CHANGE IN STORAGE
 DIVIDED BY THE AVERAGE OF IN AND OUT TIMES 100

 PERCENT DISCREPANCY =          -0.01     PERCENT DISCREPANCY =          -0.00






1
  VOLUMETRIC BUDGET FOR ENTIRE MODEL AT END OF TIME STEP   30, STRESS PERIOD  22
  ------------------------------------------------------------------------------

     CUMULATIVE VOLUMES      L**3       RATES FOR THIS TIME STEP      L**3/T
     ------------------                 ------------------------

           IN:                                      IN:
           ---                                      ---
    AWU WELLS            =    15987972.0000      AWU WELLS            =           0.0000
    DIVERSION SEGMENTS   =    86331504.0000      DIVERSION SEGMENTS   =           0.0000
    GW IRRIGATION        =           0.0000      GW IRRIGATION        =           0.0000
    SW IRRIGATION        =           0.0000      SW IRRIGATION        =           0.0000
    EFFICIENCY FACTOR GW =           0.0000      EFFICIENCY FACTOR GW =           0.0000
    EFFICIENCY FACTOR SW =           0.0000      EFFICIENCY FACTOR SW =           0.0000

                TOTAL IN =   102319472.0000                  TOTAL IN =           0.0000

          OUT:                                     OUT:
          ----                                     ----
    AWU WELLS            =           0.0000      AWU WELLS            =           0.0000
    DIVERSION SEGMENTS   =           0.0000      DIVERSION SEGMENTS   =           0.0000
    GW IRRIGATION        =    15987972.0000      GW IRRIGATION        =           0.0000
    SW IRRIGATION        =    86331504.0000      SW IRRIGATION        =           0.0000
    EFFICIENCY FACTOR GW =           0.0000      EFFICIENCY FACTOR GW =           0.0000
    EFFICIENCY FACTOR SW =           0.0000      EFFICIENCY FACTOR SW =           0.0000

               TOTAL OUT =   102319472.0000                 TOTAL OUT =           0.0000

                IN - OUT =           0.0000                  IN - OUT =           0.0000

     PERCENT DISCREPANCY =           0.00         PERCENT DISCREPANCY =           0.00



1
  VOLUMETRIC BUDGET FOR ENTIRE MODEL AT END OF TIME STEP   30, STRESS PERIOD  22
  ------------------------------------------------------------------------------

     CUMULATIVE VOLUMES      L**3       RATES FOR THIS TIME STEP      L**3/T
     ------------------                 ------------------------

           IN:                                      IN:
           ---                                      ---
             STORAGE     =    99666696.0000               STORAGE     =           1.6549
       CONSTANT HEAD     =           0.0000         CONSTANT HEAD     =           0.0000
     HEAD DEP BOUNDS     =    15804560.0000       HEAD DEP BOUNDS     =           0.2860
      STREAM LEAKAGE     =   653783232.0000        STREAM LEAKAGE     =          10.6286
        UZF RECHARGE     =     3060340.5000          UZF RECHARGE     =       8.1248E-03
               GW ET     =           0.0000                 GW ET     =           0.0000
     SURFACE LEAKAGE     =           0.0000       SURFACE LEAKAGE     =           0.0000
    AWU WELLS            =           0.0000      AWU WELLS            =           0.0000

                TOTAL IN =   772314816.0000                  TOTAL IN =          12.5777

          OUT:                                     OUT:
          ----                                     ----
             STORAGE     =   105423736.0000               STORAGE     =           0.9490
       CONSTANT HEAD     =           0.0000         CONSTANT HEAD     =           0.0000
     HEAD DEP BOUNDS     =    15836234.0000       HEAD DEP BOUNDS     =           0.2782
      STREAM LEAKAGE     =   526044448.0000        STREAM LEAKAGE     =           8.9861
        UZF RECHARGE     =           0.0000          UZF RECHARGE     =           0.0000
               GW ET     =   109024800.0000                 GW ET     =           2.3638
     SURFACE LEAKAGE     =           0.0000       SURFACE LEAKAGE     =           0.0000
    AWU WELLS            =    15987972.0000      AWU WELLS            =           0.0000

               TOTAL OUT =   772317184.0000                 TOTAL OUT =          12.5771

                IN - OUT =       -2368.0000                  IN - OUT =       5.8842E-04

     PERCENT DISCREPANCY =          -0.00         PERCENT DISCREPANCY =           0.00






         TIME SUMMARY AT END OF TIME STEP   30 IN STRESS PERIOD   22
                    SECONDS     MINUTES      HOURS       DAYS        YEARS
                    -----------------------------------------------------------
   TIME STEP LENGTH  87600.      1460.0      24.333      1.0139     2.77588E-03
 STRESS PERIOD TIME 2.62800E+06  43800.      730.00      30.417     8.32763E-02
         TOTAL TIME 5.52744E+07 9.21240E+05  15354.      639.75      1.7515    
1
1
                            STRESS PERIOD NO.   23, LENGTH =   2628000.    
                            -----------------------------------------------

                              NUMBER OF TIME STEPS =    30

                               MULTIPLIER FOR DELT =     1.000

                            INITIAL TIME STEP SIZE =   87600.00    

 REUSING NON-PARAMETER GHB CELLS FROM LAST STRESS PERIOD

      2 GHB CELLS

 REUSING STREAM SEGMENT DATA FROM LAST STRESS PERIOD



            AREAL INFILTRATION RATE
 READING ON UNIT   19 WITH FORMAT: (10F4.0)            

            1           2           3           4           5           6           7           8           9          10
 ........................................................................................................................
   1    0.000       0.000       0.000       0.000       0.000       0.000       0.000       0.000       0.000       0.000    
   2    0.000       0.000       0.000       0.000       0.000       0.000       0.000       0.000       0.000       0.000    
   3    0.000       0.000       0.000       0.000       0.000       0.000       0.000       0.000       0.000       0.000    
   4    0.000       0.000       0.000       0.000       0.000       0.000       0.000       0.000       0.000       0.000    
   5    0.000       0.000       0.000       0.000       0.000       0.000       0.000       0.000       0.000       0.000    
   6    0.000       0.000       0.000       0.000       0.000       0.000       0.000       0.000       0.000       0.000    
   7    0.000       0.000       0.000       0.000       0.000       0.000       0.000       0.000       0.000       0.000    
   8    0.000       0.000       0.000       0.000       0.000       0.000       0.000       0.000       0.000       0.000    
   9    0.000       0.000       0.000       0.000       0.000       0.000       0.000       0.000       0.000       0.000    
  10    0.000       0.000       0.000       0.000       0.000       0.000       0.000       0.000       0.000       0.000    
  11    0.000       0.000       0.000       0.000       0.000       0.000       0.000       0.000       0.000       0.000    
  12    0.000       0.000       0.000       0.000       0.000       0.000       0.000       0.000       0.000       0.000    
  13    0.000       0.000       0.000       0.000       0.000       0.000       0.000       0.000       0.000       0.000    
  14    0.000       0.000       0.000       0.000       0.000       0.000       0.000       0.000       0.000       0.000    
  15    0.000       0.000       0.000       0.000       0.000       0.000       0.000       0.000       0.000       0.000    

                  ET RATE =  1.000000E-10

 USING ET EXTINCTION DEPTH FROM PREVIOUS STRESS PERIOD. CURRENT PERIOD IS:      23

 USING EXTINCTION WATER CONTENT FROM PREVIOUS STRESS PERIOD. CURRENT PERIOD IS:      23

 PROCESSING AWU STRESS PERIOD DATA

 READING AWU STRESS PERIOD DATA

 READING IRRIGATION STREAM

 READING IRRIGATION WELL

 READING SUPPLEMENTAL WEL

 END PROCESSING AWU STRESS PERIOD DATA OPTIONS
 
 SOLVING FOR HEAD 
                                                   Max.-Head-Change                         Max.-Flux-Residual
  Residual-Control   Outer-Iter.   Inner-Iter.     Column Row Layer    Maximum-Head-Change  Column Row Layer    Maximum-Flux-Residual          L2-NORM 
          0                 1           2             1   13     1       0.1179617433E-01       1   13    1         0.6435786231E+00      0.1275539948E+01
          0                 2           2             1   13     1      -0.1138696001E-02       1   13    1        -0.6270621878E-01      0.1252542691E+00
          0                 3           1             5   13     1       0.1010108323E-03       5   13    1         0.5528819889E-02      0.1106556293E-01
          0                 4           1             5   13     1      -0.8014130399E-05       5   13    1        -0.4427250401E-03      0.8697905376E-03

    ------------------------------------------------
       NWT REQUIRED            4 OUTER ITERATIONS 
       AND A TOTAL OF          6 INNER ITERATIONS.
    ------------------------------------------------

 NO OUTPUT CONTROL FOR STRESS PERIOD   23   TIME STEP    1
 
 SOLVING FOR HEAD 
                                                   Max.-Head-Change                         Max.-Flux-Residual
  Residual-Control   Outer-Iter.   Inner-Iter.     Column Row Layer    Maximum-Head-Change  Column Row Layer    Maximum-Flux-Residual          L2-NORM 
          0                 1           2             1   13     1       0.1125080941E-01       1   13    1         0.6138297836E+00      0.1208585228E+01
          0                 2           2             5   13     1      -0.1096014128E-02       1   13    1        -0.5984929223E-01      0.1187296347E+00
          0                 3           1             5   13     1       0.9770655012E-04       5   13    1         0.5349229734E-02      0.1049506466E-01

    ------------------------------------------------
       NWT REQUIRED            3 OUTER ITERATIONS 
       AND A TOTAL OF          5 INNER ITERATIONS.
    ------------------------------------------------

 NO OUTPUT CONTROL FOR STRESS PERIOD   23   TIME STEP    2
 
 SOLVING FOR HEAD 
                                                   Max.-Head-Change                         Max.-Flux-Residual
  Residual-Control   Outer-Iter.   Inner-Iter.     Column Row Layer    Maximum-Head-Change  Column Row Layer    Maximum-Flux-Residual          L2-NORM 
          0                 1           2             1   13     1       0.1072952223E-01       1   13    1         0.5853949062E+00      0.1146672867E+01
          0                 2           2             5   13     1      -0.1059911367E-02       5   13    1        -0.5750577828E-01      0.1126927197E+00
          0                 3           1             5   13     1       0.9448842578E-04       5   13    1         0.5174122523E-02      0.9966259624E-02

    ------------------------------------------------
       NWT REQUIRED            3 OUTER ITERATIONS 
       AND A TOTAL OF          5 INNER ITERATIONS.
    ------------------------------------------------

 NO OUTPUT CONTROL FOR STRESS PERIOD   23   TIME STEP    3
 
 SOLVING FOR HEAD 
                                                   Max.-Head-Change                         Max.-Flux-Residual
  Residual-Control   Outer-Iter.   Inner-Iter.     Column Row Layer    Maximum-Head-Change  Column Row Layer    Maximum-Flux-Residual          L2-NORM 
          0                 1           2             5   13     1       0.1034586189E-01       1   13    1         0.5582403034E+00      0.1089406958E+01
          0                 2           2             5   13     1      -0.1024812129E-02       5   13    1        -0.5561153946E-01      0.1071090419E+00
          0                 3           1             5   13     1       0.9135875990E-04       5   13    1         0.5003626432E-02      0.9477187710E-02

    ------------------------------------------------
       NWT REQUIRED            3 OUTER ITERATIONS 
       AND A TOTAL OF          5 INNER ITERATIONS.
    ------------------------------------------------

 NO OUTPUT CONTROL FOR STRESS PERIOD   23   TIME STEP    4
 
 SOLVING FOR HEAD 
                                                   Max.-Head-Change                         Max.-Flux-Residual
  Residual-Control   Outer-Iter.   Inner-Iter.     Column Row Layer    Maximum-Head-Change  Column Row Layer    Maximum-Flux-Residual          L2-NORM 
          0                 1           2             5   13     1       0.1000158973E-01       5   13    1         0.5378295375E+00      0.1036363611E+01
          0                 2           2             5   13     1      -0.9907145232E-03       5   13    1        -0.5376952349E-01      0.1019336599E+00
          0                 3           1             5   13     1       0.8831965349E-04       5   13    1         0.4837905471E-02      0.9024288571E-02

    ------------------------------------------------
       NWT REQUIRED            3 OUTER ITERATIONS 
       AND A TOTAL OF          5 INNER ITERATIONS.
    ------------------------------------------------

 NO OUTPUT CONTROL FOR STRESS PERIOD   23   TIME STEP    5
 
 SOLVING FOR HEAD 
                                                   Max.-Head-Change                         Max.-Flux-Residual
  Residual-Control   Outer-Iter.   Inner-Iter.     Column Row Layer    Maximum-Head-Change  Column Row Layer    Maximum-Flux-Residual          L2-NORM 
          0                 1           2             5   13     1       0.9667505446E-02       5   13    1         0.5199331008E+00      0.9871829489E+00
          0                 2           2             5   13     1      -0.9576224578E-03       5   13    1        -0.5198021088E-01      0.9713816350E-01
          0                 3           1             5   13     1       0.8537068634E-04       5   13    1         0.4676951520E-02      0.8605612665E-02

    ------------------------------------------------
       NWT REQUIRED            3 OUTER ITERATIONS 
       AND A TOTAL OF          5 INNER ITERATIONS.
    ------------------------------------------------

 NO OUTPUT CONTROL FOR STRESS PERIOD   23   TIME STEP    6
 
 SOLVING FOR HEAD 
                                                   Max.-Head-Change                         Max.-Flux-Residual
  Residual-Control   Outer-Iter.   Inner-Iter.     Column Row Layer    Maximum-Head-Change  Column Row Layer    Maximum-Flux-Residual          L2-NORM 
          0                 1           2             5   13     1       0.9343558184E-02       5   13    1         0.5025654215E+00      0.9415217558E+00
          0                 2           2             5   13     1      -0.9255314609E-03       5   13    1        -0.5024361326E-01      0.9268332200E-01
          0                 3           1             5   13     1       0.8250931196E-04       5   13    1         0.4520646021E-02      0.8218416214E-02

    ------------------------------------------------
       NWT REQUIRED            3 OUTER ITERATIONS 
       AND A TOTAL OF          5 INNER ITERATIONS.
    ------------------------------------------------

 NO OUTPUT CONTROL FOR STRESS PERIOD   23   TIME STEP    7
 
 SOLVING FOR HEAD 
                                                   Max.-Head-Change                         Max.-Flux-Residual
  Residual-Control   Outer-Iter.   Inner-Iter.     Column Row Layer    Maximum-Head-Change  Column Row Layer    Maximum-Flux-Residual          L2-NORM 
          0                 1           2             5   13     1       0.9029659820E-02       5   13    1         0.4857240291E+00      0.8990821451E+00
          0                 2           2             5   13     1      -0.8944414158E-03       5   13    1        -0.4855993829E-01      0.8853812933E-01
          0                 3           1             5   13     1       0.7973786504E-04       5   13    1         0.4369164724E-02      0.7852331406E-02

    ------------------------------------------------
       NWT REQUIRED            3 OUTER ITERATIONS 
       AND A TOTAL OF          5 INNER ITERATIONS.
    ------------------------------------------------

 NO OUTPUT CONTROL FOR STRESS PERIOD   23   TIME STEP    8
 
 SOLVING FOR HEAD 
                                                   Max.-Head-Change                         Max.-Flux-Residual
  Residual-Control   Outer-Iter.   Inner-Iter.     Column Row Layer    Maximum-Head-Change  Column Row Layer    Maximum-Flux-Residual          L2-NORM 
          0                 1           2             5   13     1       0.8725801961E-02       5   13    1         0.4694102620E+00      0.8595914224E+00
          0                 2           2             5   13     1      -0.8643443897E-03       5   13    1        -0.4692896294E-01      0.8468060582E-01
          0                 3           1             5   13     1       0.7705511357E-04       5   13    1         0.4222427919E-02      0.7513749798E-02

    ------------------------------------------------
       NWT REQUIRED            3 OUTER ITERATIONS 
       AND A TOTAL OF          5 INNER ITERATIONS.
    ------------------------------------------------

 NO OUTPUT CONTROL FOR STRESS PERIOD   23   TIME STEP    9
 
 SOLVING FOR HEAD 
                                                   Max.-Head-Change                         Max.-Flux-Residual
  Residual-Control   Outer-Iter.   Inner-Iter.     Column Row Layer    Maximum-Head-Change  Column Row Layer    Maximum-Flux-Residual          L2-NORM 
          0                 1           2             5   13     1       0.8431704698E-02       5   13    1         0.4536110673E+00      0.8227933470E+00
          0                 2           2             5   13     1      -0.8352094171E-03       5   13    1        -0.4534919337E-01      0.8108469761E-01
          0                 3           1             5   13     1       0.7445359641E-04       5   13    1         0.4080069086E-02      0.7198316981E-02

    ------------------------------------------------
       NWT REQUIRED            3 OUTER ITERATIONS 
       AND A TOTAL OF          5 INNER ITERATIONS.
    ------------------------------------------------

 NO OUTPUT CONTROL FOR STRESS PERIOD   23   TIME STEP   10
 
 SOLVING FOR HEAD 
                                                   Max.-Head-Change                         Max.-Flux-Residual
  Residual-Control   Outer-Iter.   Inner-Iter.     Column Row Layer    Maximum-Head-Change  Column Row Layer    Maximum-Flux-Residual          L2-NORM 
          0                 1           2             5   13     1       0.8147310968E-02       5   13    1         0.4383248726E+00      0.7884783857E+00
          0                 2           2             5   13     1      -0.8070379081E-03       5   13    1        -0.4382083603E-01      0.7773144592E-01
          0                 3           1             5   13     1       0.7194244985E-04       5   13    1         0.3942541131E-02      0.6906558877E-02

    ------------------------------------------------
       NWT REQUIRED            3 OUTER ITERATIONS 
       AND A TOTAL OF          5 INNER ITERATIONS.
    ------------------------------------------------

 NO OUTPUT CONTROL FOR STRESS PERIOD   23   TIME STEP   11
 
 SOLVING FOR HEAD 
                                                   Max.-Head-Change                         Max.-Flux-Residual
  Residual-Control   Outer-Iter.   Inner-Iter.     Column Row Layer    Maximum-Head-Change  Column Row Layer    Maximum-Flux-Residual          L2-NORM 
          0                 1           2             5   13     1       0.7872305246E-02       5   13    1         0.4235357889E+00      0.7564270357E+00
          0                 2           2             5   13     1      -0.7797981235E-03       5   13    1        -0.4234229187E-01      0.7459352854E-01
          0                 3           1             5   13     1       0.6951660954E-04       5   13    1         0.3809644125E-02      0.6628597014E-02

    ------------------------------------------------
       NWT REQUIRED            3 OUTER ITERATIONS 
       AND A TOTAL OF          5 INNER ITERATIONS.
    ------------------------------------------------

 NO OUTPUT CONTROL FOR STRESS PERIOD   23   TIME STEP   12
 
 SOLVING FOR HEAD 
                                                   Max.-Head-Change                         Max.-Flux-Residual
  Residual-Control   Outer-Iter.   Inner-Iter.     Column Row Layer    Maximum-Head-Change  Column Row Layer    Maximum-Flux-Residual          L2-NORM 
          0                 1           2             5   13     1       0.7606708662E-02       5   13    1         0.4092466081E+00      0.7264709848E+00
          0                 2           2             5   13     1      -0.7534935068E-03       5   13    1        -0.4091366715E-01      0.7166781740E-01
          0                 3           1             5   13     1       0.6717659648E-04       5   13    1         0.3681127550E-02      0.6378139408E-02

    ------------------------------------------------
       NWT REQUIRED            3 OUTER ITERATIONS 
       AND A TOTAL OF          5 INNER ITERATIONS.
    ------------------------------------------------

 NO OUTPUT CONTROL FOR STRESS PERIOD   23   TIME STEP   13
 
 SOLVING FOR HEAD 
                                                   Max.-Head-Change                         Max.-Flux-Residual
  Residual-Control   Outer-Iter.   Inner-Iter.     Column Row Layer    Maximum-Head-Change  Column Row Layer    Maximum-Flux-Residual          L2-NORM 
          0                 1           2             5   13     1       0.7350034912E-02       5   13    1         0.3954330315E+00      0.6984110615E+00
          0                 2           2             5   13     1      -0.7280440407E-03       5   13    1        -0.3953254718E-01      0.6888962817E-01
          0                 3           1             5   13     1       0.6490356955E-04       5   13    1         0.3556855972E-02      0.6128408752E-02

    ------------------------------------------------
       NWT REQUIRED            3 OUTER ITERATIONS 
       AND A TOTAL OF          5 INNER ITERATIONS.
    ------------------------------------------------

 NO OUTPUT CONTROL FOR STRESS PERIOD   23   TIME STEP   14
 
 SOLVING FOR HEAD 
                                                   Max.-Head-Change                         Max.-Flux-Residual
  Residual-Control   Outer-Iter.   Inner-Iter.     Column Row Layer    Maximum-Head-Change  Column Row Layer    Maximum-Flux-Residual          L2-NORM 
          0                 1           2             5   13     1       0.7102225499E-02       5   13    1         0.3820897050E+00      0.6721685517E+00
          0                 2           2             5   13     1      -0.7035162944E-03       5   13    1        -0.3819852491E-01      0.6634389753E-01
          0                 3           1             5   13     1       0.6271633292E-04       5   13    1         0.3436798882E-02      0.5904392948E-02

    ------------------------------------------------
       NWT REQUIRED            3 OUTER ITERATIONS 
       AND A TOTAL OF          5 INNER ITERATIONS.
    ------------------------------------------------

 NO OUTPUT CONTROL FOR STRESS PERIOD   23   TIME STEP   15
 
 SOLVING FOR HEAD 
                                                   Max.-Head-Change                         Max.-Flux-Residual
  Residual-Control   Outer-Iter.   Inner-Iter.     Column Row Layer    Maximum-Head-Change  Column Row Layer    Maximum-Flux-Residual          L2-NORM 
          0                 1           2             5   13     1       0.6863095722E-02       5   13    1         0.3692107264E+00      0.6475428989E+00
          0                 2           2             5   13     1      -0.6798278924E-03       5   13    1        -0.3691085997E-01      0.6393668046E-01
          0                 3           1             5   13     1       0.6060561423E-04       5   13    1         0.3321000135E-02      0.5699688293E-02

    ------------------------------------------------
       NWT REQUIRED            3 OUTER ITERATIONS 
       AND A TOTAL OF          5 INNER ITERATIONS.
    ------------------------------------------------

 NO OUTPUT CONTROL FOR STRESS PERIOD   23   TIME STEP   16
 
 SOLVING FOR HEAD 
                                                   Max.-Head-Change                         Max.-Flux-Residual
  Residual-Control   Outer-Iter.   Inner-Iter.     Column Row Layer    Maximum-Head-Change  Column Row Layer    Maximum-Flux-Residual          L2-NORM 
          0                 1           2             5   13     1       0.6632414142E-02       5   13    1         0.3567832793E+00      0.6244290313E+00
          0                 2           2             5   13     1      -0.6569767750E-03       5   13    1        -0.3566835384E-01      0.6166267007E-01
          0                 3           1             5   13     1       0.5856743179E-04       5   13    1         0.3209136567E-02      0.5492619447E-02

    ------------------------------------------------
       NWT REQUIRED            3 OUTER ITERATIONS 
       AND A TOTAL OF          5 INNER ITERATIONS.
    ------------------------------------------------

 NO OUTPUT CONTROL FOR STRESS PERIOD   23   TIME STEP   17
 
 SOLVING FOR HEAD 
                                                   Max.-Head-Change                         Max.-Flux-Residual
  Residual-Control   Outer-Iter.   Inner-Iter.     Column Row Layer    Maximum-Head-Change  Column Row Layer    Maximum-Flux-Residual          L2-NORM 
          0                 1           2             5   13     1       0.6409686844E-02       5   13    1         0.3447813699E+00      0.6027029634E+00
          0                 2           2             5   13     1      -0.6349139445E-03       5   13    1        -0.3446843372E-01      0.5952967131E-01
          0                 3           1             5   13     1       0.5659863239E-04       5   13    1         0.3101065838E-02      0.5304605023E-02

    ------------------------------------------------
       NWT REQUIRED            3 OUTER ITERATIONS 
       AND A TOTAL OF          5 INNER ITERATIONS.
    ------------------------------------------------

 NO OUTPUT CONTROL FOR STRESS PERIOD   23   TIME STEP   18
 
 SOLVING FOR HEAD 
                                                   Max.-Head-Change                         Max.-Flux-Residual
  Residual-Control   Outer-Iter.   Inner-Iter.     Column Row Layer    Maximum-Head-Change  Column Row Layer    Maximum-Flux-Residual          L2-NORM 
          0                 1           2             5   13     1       0.6195020296E-02       5   13    1         0.3332112992E+00      0.5822803990E+00
          0                 2           2             5   13     1      -0.6136498653E-03       5   13    1        -0.3331167886E-01      0.5752501357E-01
          0                 3           1             5   13     1       0.5470416878E-04       5   13    1         0.2997038180E-02      0.5128509309E-02

    ------------------------------------------------
       NWT REQUIRED            3 OUTER ITERATIONS 
       AND A TOTAL OF          5 INNER ITERATIONS.
    ------------------------------------------------

 NO OUTPUT CONTROL FOR STRESS PERIOD   23   TIME STEP   19
 
 SOLVING FOR HEAD 
                                                   Max.-Head-Change                         Max.-Flux-Residual
  Residual-Control   Outer-Iter.   Inner-Iter.     Column Row Layer    Maximum-Head-Change  Column Row Layer    Maximum-Flux-Residual          L2-NORM 
          0                 1           2             5   13     1       0.5987916725E-02       5   13    1         0.3220467613E+00      0.5630503852E+00
          0                 2           2             5   13     1      -0.5931342795E-03       5   13    1        -0.3219547861E-01      0.5563480152E-01
          0                 3           1             5   13     1       0.5287652626E-04       5   13    1         0.2896691414E-02      0.4961679012E-02

    ------------------------------------------------
       NWT REQUIRED            3 OUTER ITERATIONS 
       AND A TOTAL OF          5 INNER ITERATIONS.
    ------------------------------------------------

 NO OUTPUT CONTROL FOR STRESS PERIOD   23   TIME STEP   20
 
 SOLVING FOR HEAD 
                                                   Max.-Head-Change                         Max.-Flux-Residual
  Residual-Control   Outer-Iter.   Inner-Iter.     Column Row Layer    Maximum-Head-Change  Column Row Layer    Maximum-Flux-Residual          L2-NORM 
          0                 1           2             5   13     1       0.5788365058E-02       5   13    1         0.3112875603E+00      0.5449435586E+00
          0                 2           2             5   13     1      -0.5733672344E-03       5   13    1        -0.3111980616E-01      0.5385488361E-01
          0                 3           1             5   13     1       0.5111979629E-04       5   13    1         0.2800204091E-02      0.4805563752E-02

    ------------------------------------------------
       NWT REQUIRED            3 OUTER ITERATIONS 
       AND A TOTAL OF          5 INNER ITERATIONS.
    ------------------------------------------------

 NO OUTPUT CONTROL FOR STRESS PERIOD   23   TIME STEP   21
 
 SOLVING FOR HEAD 
                                                   Max.-Head-Change                         Max.-Flux-Residual
  Residual-Control   Outer-Iter.   Inner-Iter.     Column Row Layer    Maximum-Head-Change  Column Row Layer    Maximum-Flux-Residual          L2-NORM 
          0                 1           2             5   13     1       0.5595868293E-02       5   13    1         0.3009072349E+00      0.5278647677E+00
          0                 2           2             5   13     1      -0.5542980023E-03       5   13    1        -0.3008195990E-01      0.5217465606E-01
          0                 3           1             5   13     1       0.4941544165E-04       5   13    1         0.2706586264E-02      0.4656829815E-02

    ------------------------------------------------
       NWT REQUIRED            3 OUTER ITERATIONS 
       AND A TOTAL OF          5 INNER ITERATIONS.
    ------------------------------------------------

 NO OUTPUT CONTROL FOR STRESS PERIOD   23   TIME STEP   22
 
 SOLVING FOR HEAD 
                                                   Max.-Head-Change                         Max.-Flux-Residual
  Residual-Control   Outer-Iter.   Inner-Iter.     Column Row Layer    Maximum-Head-Change  Column Row Layer    Maximum-Flux-Residual          L2-NORM 
          0                 1           2             5   13     1       0.5410302307E-02       5   13    1         0.2908995555E+00      0.5117496447E+00
          0                 2           2             5   13     1      -0.5359145082E-03       5   13    1        -0.2908133581E-01      0.5058825445E-01
          0                 3           1             5   13     1       0.4777422910E-04       5   13    1         0.2616417233E-02      0.4516613122E-02

    ------------------------------------------------
       NWT REQUIRED            3 OUTER ITERATIONS 
       AND A TOTAL OF          5 INNER ITERATIONS.
    ------------------------------------------------

 NO OUTPUT CONTROL FOR STRESS PERIOD   23   TIME STEP   23
 
 SOLVING FOR HEAD 
                                                   Max.-Head-Change                         Max.-Flux-Residual
  Residual-Control   Outer-Iter.   Inner-Iter.     Column Row Layer    Maximum-Head-Change  Column Row Layer    Maximum-Flux-Residual          L2-NORM 
          0                 1           2             5   13     1       0.5231540014E-02       5   13    1         0.2812578830E+00      0.4965325123E+00
          0                 2           2             5   13     1      -0.5182078405E-03       5   13    1        -0.2811745502E-01      0.4908969554E-01
          0                 3           1             5   13     1       0.4619779239E-04       5   13    1         0.2529808319E-02      0.4384339861E-02

    ------------------------------------------------
       NWT REQUIRED            3 OUTER ITERATIONS 
       AND A TOTAL OF          5 INNER ITERATIONS.
    ------------------------------------------------

 NO OUTPUT CONTROL FOR STRESS PERIOD   23   TIME STEP   24
 
 SOLVING FOR HEAD 
                                                   Max.-Head-Change                         Max.-Flux-Residual
  Residual-Control   Outer-Iter.   Inner-Iter.     Column Row Layer    Maximum-Head-Change  Column Row Layer    Maximum-Flux-Residual          L2-NORM 
          0                 1           2             5   13     1       0.5059220050E-02       5   13    1         0.2719628744E+00      0.4821564680E+00
          0                 2           2             5   13     1      -0.5011387953E-03       5   13    1        -0.2718821028E-01      0.4767325564E-01
          0                 3           1             5   13     1       0.4467532070E-04       5   13    1         0.2446159804E-02      0.4258941934E-02

    ------------------------------------------------
       NWT REQUIRED            3 OUTER ITERATIONS 
       AND A TOTAL OF          5 INNER ITERATIONS.
    ------------------------------------------------

 NO OUTPUT CONTROL FOR STRESS PERIOD   23   TIME STEP   25
 
 SOLVING FOR HEAD 
                                                   Max.-Head-Change                         Max.-Flux-Residual
  Residual-Control   Outer-Iter.   Inner-Iter.     Column Row Layer    Maximum-Head-Change  Column Row Layer    Maximum-Flux-Residual          L2-NORM 
          0                 1           2             5   13     1       0.4893104735E-02       5   13    1         0.2630020557E+00      0.4685586705E+00
          0                 2           2             5   13     1      -0.4846827738E-03       5   13    1        -0.2629228875E-01      0.4633237996E-01
          0                 3           1             5   13     1       0.4320734277E-04       5   13    1         0.2365510739E-02      0.4139947186E-02

    ------------------------------------------------
       NWT REQUIRED            3 OUTER ITERATIONS 
       AND A TOTAL OF          5 INNER ITERATIONS.
    ------------------------------------------------

 NO OUTPUT CONTROL FOR STRESS PERIOD   23   TIME STEP   26
 
 SOLVING FOR HEAD 
                                                   Max.-Head-Change                         Max.-Flux-Residual
  Residual-Control   Outer-Iter.   Inner-Iter.     Column Row Layer    Maximum-Head-Change  Column Row Layer    Maximum-Flux-Residual          L2-NORM 
          0                 1           2             5   13     1       0.4733083659E-02       5   13    1         0.2543695317E+00      0.4556857657E+00
          0                 2           2             5   13     1      -0.4688298297E-03       5   13    1        -0.2542916582E-01      0.4506238412E-01
          0                 3           1             5   13     1       0.4179353995E-04       5   13    1         0.2287816675E-02      0.4028141685E-02

    ------------------------------------------------
       NWT REQUIRED            3 OUTER ITERATIONS 
       AND A TOTAL OF          5 INNER ITERATIONS.
    ------------------------------------------------

 NO OUTPUT CONTROL FOR STRESS PERIOD   23   TIME STEP   27
 
 SOLVING FOR HEAD 
                                                   Max.-Head-Change                         Max.-Flux-Residual
  Residual-Control   Outer-Iter.   Inner-Iter.     Column Row Layer    Maximum-Head-Change  Column Row Layer    Maximum-Flux-Residual          L2-NORM 
          0                 1           2             5   13     1       0.4578928272E-02       5   13    1         0.2460533364E+00      0.4434983308E+00
          0                 2           2             5   13     1      -0.4535568530E-03       5   13    1        -0.2459762089E-01      0.4385765430E-01
          0                 3           1             5   13     1       0.4043072490E-04       5   13    1         0.2212944044E-02      0.3919215295E-02

    ------------------------------------------------
       NWT REQUIRED            3 OUTER ITERATIONS 
       AND A TOTAL OF          5 INNER ITERATIONS.
    ------------------------------------------------

 NO OUTPUT CONTROL FOR STRESS PERIOD   23   TIME STEP   28
 
 SOLVING FOR HEAD 
                                                   Max.-Head-Change                         Max.-Flux-Residual
  Residual-Control   Outer-Iter.   Inner-Iter.     Column Row Layer    Maximum-Head-Change  Column Row Layer    Maximum-Flux-Residual          L2-NORM 
          0                 1           2             5   13     1       0.4427293338E-02       5   13    1         0.2378855639E+00      0.4318538011E+00
          0                 2           2             5   13     1      -0.4385411007E-03       5   13    1        -0.2378127623E-01      0.4271377359E-01
          0                 3           1             5   13     1       0.3909454307E-04       5   13    1         0.2139604652E-02      0.3820270360E-02

    ------------------------------------------------
       NWT REQUIRED            3 OUTER ITERATIONS 
       AND A TOTAL OF          5 INNER ITERATIONS.
    ------------------------------------------------

 NO OUTPUT CONTROL FOR STRESS PERIOD   23   TIME STEP   29
 
 SOLVING FOR HEAD 
                                                   Max.-Head-Change                         Max.-Flux-Residual
  Residual-Control   Outer-Iter.   Inner-Iter.     Column Row Layer    Maximum-Head-Change  Column Row Layer    Maximum-Flux-Residual          L2-NORM 
          0                 1           2             5   13     1       0.4281180118E-02       5   13    1         0.2300138226E+00      0.4671835622E+00
          0                 2           2             5   13     1      -0.4240651222E-03       5   13    1        -0.2299416944E-01      0.4630811543E-01
          0                 3           1             5   13     1       0.3780261393E-04       5   13    1         0.2068702211E-02      0.4147461350E-02

    ------------------------------------------------
       NWT REQUIRED            3 OUTER ITERATIONS 
       AND A TOTAL OF          5 INNER ITERATIONS.
    ------------------------------------------------

 NO OUTPUT CONTROL FOR STRESS PERIOD   23   TIME STEP   30



 STREAM LISTING     PERIOD     23   STEP       30

 LAYER ROW COL. STREAM  RCH.  FLOW INTO     FLOW TO   FLOW OUT OF   OVRLND.     DIRECT     STREAM       STREAM     STREAM     STREAM   STREAMBED  STREAMBED
                SEG.NO.  NO.  STRM. RCH.    AQUIFER    STRM. RCH.    RUNOFF     PRECIP       ET          HEAD       DEPTH      WIDTH   CONDCTNC.   GRADIENT

   1    1    1     1     1    3.2000E+00  8.0317E-02   3.1197E+00  0.000E+00  0.000E+00  0.000E+00  1.09369E+03  6.449E-01  4.897E+00  2.204E-02  1.215E+00
   1    2    2     1     2    3.1197E+00  1.2332E-01   2.9964E+00  0.000E+00  0.000E+00  0.000E+00  1.08870E+03  6.376E-01  4.843E+00  3.390E-02  1.213E+00
   1    3    3     1     3    2.9964E+00  1.0413E-01   2.8922E+00  0.000E+00  0.000E+00  0.000E+00  1.08305E+03  6.292E-01  4.782E+00  2.869E-02  1.210E+00
   1    3    4     1     4    2.8922E+00  9.5018E-02   2.7972E+00  0.000E+00  0.000E+00  0.000E+00  1.07803E+03  6.217E-01  4.727E+00  2.624E-02  1.207E+00
   1    4    5     2     1    7.9721E-01  2.4478E-01   5.5243E-01  0.000E+00  0.000E+00  0.000E+00  1.07207E+03  1.382E-01  1.200E+01  7.800E-02  1.046E+00
   1    5    6     2     2    5.5243E-01  1.8658E-01   3.6584E-01  0.000E+00  0.000E+00  0.000E+00  1.06662E+03  1.097E-01  1.200E+01  6.000E-02  1.037E+00
   1    6    6     2     3    3.6584E-01  1.8482E-01   1.8102E-01  0.000E+00  0.000E+00  0.000E+00  1.06187E+03  8.040E-02  1.200E+01  6.000E-02  1.027E+00
   1    7    6     2     4    1.8102E-01  1.8102E-01   0.0000E+00  0.000E+00  0.000E+00  0.000E+00  1.05710E+03  2.119E-02  1.200E+01  6.000E-02  1.007E+00
   1    8    6     2     5    0.0000E+00  0.0000E+00   0.0000E+00  0.000E+00  0.000E+00  0.000E+00  1.05236E+03  0.000E+00  1.200E+01  6.000E-02  1.000E+00
   1    3    5     3     1    2.0000E+00  2.8252E-01   1.7175E+00  0.000E+00  0.000E+00  0.000E+00  1.07555E+03  1.909E+00  9.636E+00  7.227E-02  1.955E+00
   1    3    6     3     2    1.7175E+00  2.4905E-01   1.4684E+00  0.000E+00  0.000E+00  0.000E+00  1.07264E+03  1.727E+00  8.909E+00  6.682E-02  1.864E+00
   1    3    7     3     3    1.4684E+00  1.9718E-01   1.2712E+00  0.000E+00  0.000E+00  0.000E+00  1.06987E+03  1.555E+00  8.218E+00  5.547E-02  1.777E+00
   1    4    8     3     4    1.2712E+00  2.2567E-01   1.0456E+00  0.000E+00  0.000E+00  0.000E+00  1.06682E+03  1.364E+00  7.455E+00  6.709E-02  1.682E+00
   1    5    8     3     5    1.0456E+00  1.5790E-01   8.8768E-01  0.000E+00  0.000E+00  0.000E+00  1.06362E+03  1.164E+00  6.655E+00  4.991E-02  1.582E+00
   1    6    8     3     6    8.8768E-01  5.5980E-02   8.3170E-01  0.000E+00  0.000E+00  0.000E+00  1.06158E+03  1.036E+00  6.145E+00  1.844E-02  1.518E+00
   1    5   10     4     1    1.0000E+01  9.0919E-02   9.9091E+00  0.000E+00  0.000E+00  0.000E+00  1.07836E+03  6.368E-01  1.000E+01  2.500E-02  1.212E+00
   1    5    9     4     2    9.9091E+00  1.8158E-01   9.7275E+00  0.000E+00  0.000E+00  0.000E+00  1.07154E+03  6.315E-01  1.000E+01  5.000E-02  1.211E+00
   1    6    8     4     3    9.7275E+00  1.2689E-01   9.6006E+00  0.000E+00  0.000E+00  0.000E+00  1.06381E+03  6.256E-01  1.000E+01  3.500E-02  1.209E+00
   1    6    8     5     1    1.0432E+01  2.2686E-01   1.0205E+01  0.000E+00  0.000E+00  0.000E+00  1.05868E+03  6.790E-01  1.542E+01  6.166E-02  1.226E+00
   1    7    7     5     2    1.0205E+01  2.7894E-01   9.9265E+00  0.000E+00  0.000E+00  0.000E+00  1.05417E+03  6.732E-01  1.519E+01  7.594E-02  1.224E+00
   1    8    7     5     3    9.9265E+00  1.9221E-01   9.7343E+00  0.000E+00  0.000E+00  0.000E+00  1.04992E+03  6.676E-01  1.497E+01  5.241E-02  1.223E+00
   1    8    6     5     4    9.7343E+00  1.3577E-01   9.5985E+00  0.000E+00  0.000E+00  0.000E+00  1.04691E+03  6.637E-01  1.482E+01  3.706E-02  1.221E+00
   1    9    6     6     1    9.5985E+00  2.2097E-01   9.3776E+00  0.000E+00  0.000E+00  0.000E+00  1.04341E+03  6.828E-01  1.200E+01  6.000E-02  1.228E+00
   1   10    7     6     2    9.3776E+00  2.2039E-01   9.1572E+00  0.000E+00  0.000E+00  0.000E+00  1.03885E+03  6.732E-01  1.200E+01  6.000E-02  1.224E+00
   1   11    7     6     3    9.1572E+00  2.1981E-01   8.9374E+00  0.000E+00  0.000E+00  0.000E+00  1.03430E+03  6.636E-01  1.200E+01  6.000E-02  1.221E+00
   1   12    7     6     4    8.9374E+00  2.1923E-01   8.7181E+00  0.000E+00  0.000E+00  0.000E+00  1.02974E+03  6.539E-01  1.200E+01  6.000E-02  1.218E+00
   1   13    7     6     5    8.7181E+00 -1.0294E-01   8.8211E+00  0.000E+00  0.000E+00  0.000E+00  1.02656E+03  6.513E-01  1.200E+01  2.400E-01 -1.430E-01
   1   14    9     7     1    1.5000E+02  1.3402E+00   1.4866E+02  0.000E+00  0.000E+00  0.000E+00  1.03987E+03  2.288E+00  5.529E+01  5.593E-01  7.987E-01
   1   13    8     7     2    1.4866E+02  1.8493E+00   1.4681E+02  0.000E+00  0.000E+00  0.000E+00  1.03478E+03  2.279E+00  5.526E+01  6.148E-01  1.003E+00
   1   13    7     7     3    1.4681E+02  1.5080E+00   1.4530E+02  0.000E+00  0.000E+00  0.000E+00  1.02969E+03  2.270E+00  5.522E+01  5.584E-01  9.001E-01
   1   13    6     8     1    1.5412E+02  8.8791E-01   1.5324E+02  0.000E+00  0.000E+00  0.000E+00  1.02472E+03  2.843E+00  4.122E+01  4.200E-01  7.047E-01
   1   13    5     8     2    1.5324E+02  1.7333E-01   1.5306E+02  0.000E+00  0.000E+00  0.000E+00  1.01846E+03  2.839E+00  4.116E+01  4.195E-01  1.377E-01
   1   13    4     8     3    1.5306E+02 -2.4798E+00   1.5554E+02  0.000E+00  0.000E+00  0.000E+00  1.01222E+03  2.847E+00  4.128E+01  4.207E+00 -1.965E-01
   1   13    3     8     4    1.5554E+02 -3.6449E+00   1.5919E+02  0.000E+00  0.000E+00  0.000E+00  1.00599E+03  2.868E+00  4.158E+01  4.238E+00 -2.867E-01
   1   13    2     8     5    1.5919E+02 -2.5301E+00   1.6172E+02  0.000E+00  0.000E+00  0.000E+00  9.99764E+02  2.889E+00  4.189E+01  4.269E+00 -1.976E-01
   1   13    1     8     6    1.6172E+02 -1.8450E+00   1.6356E+02  0.000E+00  0.000E+00  0.000E+00  9.94779E+02  2.904E+00  4.210E+01  2.574E+00 -2.389E-01
   1    6    8     9     1    0.0000E+00  0.0000E+00   0.0000E+00  0.000E+00  0.000E+00  0.000E+00  1.07850E+03  0.000E+00  4.000E+00  0.000E+00  1.000E+00





UNSATURATED ZONE PACKAGE VOLUMETRIC BUDGET FOR  TIME STEP    30 STRESS PERIOD   23
  ------------------------------------------------------------------------------



     CUMULATIVE VOLUMES      L**3       RATES FOR THIS TIME STEP      L**3/T
     ------------------                 ------------------------

           IN:                                      IN:
           ---                                      ---
        INFILTRATION =   102392681.9333          INFILTRATION =       0.0000E+00

          OUT:                                     OUT:
          ----                                     ----
              UZF ET =    86302658.9559                UZF ET =           0.0097
        UZF RECHARGE =     3076291.7032          UZF RECHARGE =           0.0051

            IN - OUT =    13013731.2743              IN - OUT =          -0.0148

          STORAGE:                                 STORAGE:
          --------                                 --------
      STORAGE CHANGE =    13045116.8086        STORAGE CHANGE =          -0.0148

 PERCENT DISCREPANCY IS DIFFERENCE BETWEEN IN-OUT MINUS CHANGE IN STORAGE
 DIVIDED BY THE AVERAGE OF IN AND OUT TIMES 100

 PERCENT DISCREPANCY =          -0.01     PERCENT DISCREPANCY =          -0.08






1
  VOLUMETRIC BUDGET FOR ENTIRE MODEL AT END OF TIME STEP   30, STRESS PERIOD  23
  ------------------------------------------------------------------------------

     CUMULATIVE VOLUMES      L**3       RATES FOR THIS TIME STEP      L**3/T
     ------------------                 ------------------------

           IN:                                      IN:
           ---                                      ---
    AWU WELLS            =    15987972.0000      AWU WELLS            =           0.0000
    DIVERSION SEGMENTS   =    86331504.0000      DIVERSION SEGMENTS   =           0.0000
    GW IRRIGATION        =           0.0000      GW IRRIGATION        =           0.0000
    SW IRRIGATION        =           0.0000      SW IRRIGATION        =           0.0000
    EFFICIENCY FACTOR GW =           0.0000      EFFICIENCY FACTOR GW =           0.0000
    EFFICIENCY FACTOR SW =           0.0000      EFFICIENCY FACTOR SW =           0.0000

                TOTAL IN =   102319472.0000                  TOTAL IN =           0.0000

          OUT:                                     OUT:
          ----                                     ----
    AWU WELLS            =           0.0000      AWU WELLS            =           0.0000
    DIVERSION SEGMENTS   =           0.0000      DIVERSION SEGMENTS   =           0.0000
    GW IRRIGATION        =    15987972.0000      GW IRRIGATION        =           0.0000
    SW IRRIGATION        =    86331504.0000      SW IRRIGATION        =           0.0000
    EFFICIENCY FACTOR GW =           0.0000      EFFICIENCY FACTOR GW =           0.0000
    EFFICIENCY FACTOR SW =           0.0000      EFFICIENCY FACTOR SW =           0.0000

               TOTAL OUT =   102319472.0000                 TOTAL OUT =           0.0000

                IN - OUT =           0.0000                  IN - OUT =           0.0000

     PERCENT DISCREPANCY =           0.00         PERCENT DISCREPANCY =           0.00



1
  VOLUMETRIC BUDGET FOR ENTIRE MODEL AT END OF TIME STEP   30, STRESS PERIOD  23
  ------------------------------------------------------------------------------

     CUMULATIVE VOLUMES      L**3       RATES FOR THIS TIME STEP      L**3/T
     ------------------                 ------------------------

           IN:                                      IN:
           ---                                      ---
             STORAGE     =   103393960.0000               STORAGE     =           1.4403
       CONSTANT HEAD     =           0.0000         CONSTANT HEAD     =           0.0000
     HEAD DEP BOUNDS     =    16556271.0000       HEAD DEP BOUNDS     =           0.2861
      STREAM LEAKAGE     =   681369088.0000        STREAM LEAKAGE     =          10.2406
        UZF RECHARGE     =     3076293.0000          UZF RECHARGE     =       5.1214E-03
               GW ET     =           0.0000                 GW ET     =           0.0000
     SURFACE LEAKAGE     =           0.0000       SURFACE LEAKAGE     =           0.0000
    AWU WELLS            =           0.0000      AWU WELLS            =           0.0000

                TOTAL IN =   804395584.0000                  TOTAL IN =          11.9720

          OUT:                                     OUT:
          ----                                     ----
             STORAGE     =   110267656.0000               STORAGE     =           1.0744
       CONSTANT HEAD     =           0.0000         CONSTANT HEAD     =           0.0000
     HEAD DEP BOUNDS     =    16578320.0000       HEAD DEP BOUNDS     =           0.2848
      STREAM LEAKAGE     =   552514240.0000        STREAM LEAKAGE     =          10.6027
        UZF RECHARGE     =           0.0000          UZF RECHARGE     =           0.0000
               GW ET     =   109050272.0000                 GW ET     =       9.8299E-03
     SURFACE LEAKAGE     =           0.0000       SURFACE LEAKAGE     =           0.0000
    AWU WELLS            =    15987972.0000      AWU WELLS            =           0.0000

               TOTAL OUT =   804398464.0000                 TOTAL OUT =          11.9717

                IN - OUT =       -2880.0000                  IN - OUT =       3.1853E-04

     PERCENT DISCREPANCY =          -0.00         PERCENT DISCREPANCY =           0.00






         TIME SUMMARY AT END OF TIME STEP   30 IN STRESS PERIOD   23
                    SECONDS     MINUTES      HOURS       DAYS        YEARS
                    -----------------------------------------------------------
   TIME STEP LENGTH  87600.      1460.0      24.333      1.0139     2.77588E-03
 STRESS PERIOD TIME 2.62800E+06  43800.      730.00      30.417     8.32763E-02
         TOTAL TIME 5.79024E+07 9.65040E+05  16084.      670.17      1.8348    
1
1
                            STRESS PERIOD NO.   24, LENGTH =   2628000.    
                            -----------------------------------------------

                              NUMBER OF TIME STEPS =    30

                               MULTIPLIER FOR DELT =     1.000

                            INITIAL TIME STEP SIZE =   87600.00    

 REUSING NON-PARAMETER GHB CELLS FROM LAST STRESS PERIOD

      2 GHB CELLS

 REUSING STREAM SEGMENT DATA FROM LAST STRESS PERIOD



            AREAL INFILTRATION RATE
 READING ON UNIT   19 WITH FORMAT: (10F4.0)            

            1           2           3           4           5           6           7           8           9          10
 ........................................................................................................................
   1    0.000       0.000       0.000       0.000       0.000       0.000       0.000       0.000       0.000       0.000    
   2    0.000       0.000       0.000       0.000       0.000       0.000       0.000       0.000       0.000       0.000    
   3    0.000       0.000       0.000       0.000       0.000       0.000       0.000       0.000       0.000       0.000    
   4    0.000       0.000       0.000       0.000       0.000       0.000       0.000       0.000       0.000       0.000    
   5    0.000       0.000       0.000       0.000       0.000       0.000       0.000       0.000       0.000       0.000    
   6    0.000       0.000       0.000       0.000       0.000       0.000       0.000       0.000       0.000       0.000    
   7    0.000       0.000       0.000       0.000       0.000       0.000       0.000       0.000       0.000       0.000    
   8    0.000       0.000       0.000       0.000       0.000       0.000       0.000       0.000       0.000       0.000    
   9    0.000       0.000       0.000       0.000       0.000       0.000       0.000       0.000       0.000       0.000    
  10    0.000       0.000       0.000       0.000       0.000       0.000       0.000       0.000       0.000       0.000    
  11    0.000       0.000       0.000       0.000       0.000       0.000       0.000       0.000       0.000       0.000    
  12    0.000       0.000       0.000       0.000       0.000       0.000       0.000       0.000       0.000       0.000    
  13    0.000       0.000       0.000       0.000       0.000       0.000       0.000       0.000       0.000       0.000    
  14    0.000       0.000       0.000       0.000       0.000       0.000       0.000       0.000       0.000       0.000    
  15    0.000       0.000       0.000       0.000       0.000       0.000       0.000       0.000       0.000       0.000    

                  ET RATE =  1.000000E-10

 USING ET EXTINCTION DEPTH FROM PREVIOUS STRESS PERIOD. CURRENT PERIOD IS:      24

 USING EXTINCTION WATER CONTENT FROM PREVIOUS STRESS PERIOD. CURRENT PERIOD IS:      24

 PROCESSING AWU STRESS PERIOD DATA

 READING AWU STRESS PERIOD DATA

 READING IRRIGATION STREAM

 READING IRRIGATION WELL

 READING SUPPLEMENTAL WEL

 END PROCESSING AWU STRESS PERIOD DATA OPTIONS
 
 SOLVING FOR HEAD 
                                                   Max.-Head-Change                         Max.-Flux-Residual
  Residual-Control   Outer-Iter.   Inner-Iter.     Column Row Layer    Maximum-Head-Change  Column Row Layer    Maximum-Flux-Residual          L2-NORM 
          0                 1           2             5   13     1       0.4143043607E-02       5   13    1         0.2225595187E+00      0.4539333704E+00
          0                 2           2             5   13     1      -0.4103223948E-03       5   13    1        -0.2229744931E-01      0.4501637638E-01
          0                 3           1             5   13     1       0.3651914659E-04       5   13    1         0.1998120661E-02      0.4028527107E-02

    ------------------------------------------------
       NWT REQUIRED            3 OUTER ITERATIONS 
       AND A TOTAL OF          5 INNER ITERATIONS.
    ------------------------------------------------

 NO OUTPUT CONTROL FOR STRESS PERIOD   24   TIME STEP    1
 
 SOLVING FOR HEAD 
                                                   Max.-Head-Change                         Max.-Flux-Residual
  Residual-Control   Outer-Iter.   Inner-Iter.     Column Row Layer    Maximum-Head-Change  Column Row Layer    Maximum-Flux-Residual          L2-NORM 
          0                 1           2             5   13     1       0.4009972753E-02       5   13    1         0.2153789487E+00      0.4414909178E+00
          0                 2           2             5   13     1      -0.4061501526E-03       5   13    1        -0.2207834290E-01      0.4403581877E-01
          0                 3           1             5   13     1       0.3620643257E-04       5   13    1         0.1986350902E-02      0.3945446456E-02

    ------------------------------------------------
       NWT REQUIRED            3 OUTER ITERATIONS 
       AND A TOTAL OF          5 INNER ITERATIONS.
    ------------------------------------------------

 NO OUTPUT CONTROL FOR STRESS PERIOD   24   TIME STEP    2
 
 SOLVING FOR HEAD 
                                                   Max.-Head-Change                         Max.-Flux-Residual
  Residual-Control   Outer-Iter.   Inner-Iter.     Column Row Layer    Maximum-Head-Change  Column Row Layer    Maximum-Flux-Residual          L2-NORM 
          0                 1           2             5   13     1       0.3864352040E-02       5   13    1         0.2079854953E+00      0.4295514697E+00
          0                 2           2             5   13     1      -0.3827752375E-03       5   13    1        -0.2079191688E-01      0.4256923474E-01
          0                 3           1             5   13     1       0.3412217753E-04       5   13    1         0.1870599889E-02      0.3814186621E-02

    ------------------------------------------------
       NWT REQUIRED            3 OUTER ITERATIONS 
       AND A TOTAL OF          5 INNER ITERATIONS.
    ------------------------------------------------

 NO OUTPUT CONTROL FOR STRESS PERIOD   24   TIME STEP    3
 
 SOLVING FOR HEAD 
                                                   Max.-Head-Change                         Max.-Flux-Residual
  Residual-Control   Outer-Iter.   Inner-Iter.     Column Row Layer    Maximum-Head-Change  Column Row Layer    Maximum-Flux-Residual          L2-NORM 
          0                 1           2             5   13     1       0.3733334736E-02       5   13    1         0.2008918305E+00      0.4183275259E+00
          0                 2           2             5   13     1      -0.3697961247E-03       5   13    1        -0.2008269664E-01      0.4145334017E-01
          0                 3           1             5   13     1       0.3296556964E-04       5   13    1         0.1806815180E-02      0.3714747446E-02

    ------------------------------------------------
       NWT REQUIRED            3 OUTER ITERATIONS 
       AND A TOTAL OF          5 INNER ITERATIONS.
    ------------------------------------------------

 NO OUTPUT CONTROL FOR STRESS PERIOD   24   TIME STEP    4
 
 SOLVING FOR HEAD 
                                                   Max.-Head-Change                         Max.-Flux-Residual
  Residual-Control   Outer-Iter.   Inner-Iter.     Column Row Layer    Maximum-Head-Change  Column Row Layer    Maximum-Flux-Residual          L2-NORM 
          0                 1           2             5   13     1       0.3607522759E-02       5   13    1         0.1940807600E+00      0.4077616602E+00
          0                 2           2             5   13     1      -0.3573353307E-03       5   13    1        -0.1940185964E-01      0.4040352525E-01
          0                 3           1             5   13     1       0.3185504037E-04       5   13    1         0.1745578391E-02      0.3620826050E-02

    ------------------------------------------------
       NWT REQUIRED            3 OUTER ITERATIONS 
       AND A TOTAL OF          5 INNER ITERATIONS.
    ------------------------------------------------

 NO OUTPUT CONTROL FOR STRESS PERIOD   24   TIME STEP    5
 
 SOLVING FOR HEAD 
                                                   Max.-Head-Change                         Max.-Flux-Residual
  Residual-Control   Outer-Iter.   Inner-Iter.     Column Row Layer    Maximum-Head-Change  Column Row Layer    Maximum-Flux-Residual          L2-NORM 
          0                 1           2             5   13     1       0.3486562753E-02       5   13    1         0.1875330797E+00      0.3978027728E+00
          0                 2           2             5   13     1      -0.3453490782E-03       5   13    1        -0.1874703345E-01      0.3941053004E-01
          0                 3           1             5   13     1       0.3078495192E-04       5   13    1         0.1686580623E-02      0.3531897639E-02

    ------------------------------------------------
       NWT REQUIRED            3 OUTER ITERATIONS 
       AND A TOTAL OF          5 INNER ITERATIONS.
    ------------------------------------------------

 NO OUTPUT CONTROL FOR STRESS PERIOD   24   TIME STEP    6
 
 SOLVING FOR HEAD 
                                                   Max.-Head-Change                         Max.-Flux-Residual
  Residual-Control   Outer-Iter.   Inner-Iter.     Column Row Layer    Maximum-Head-Change  Column Row Layer    Maximum-Flux-Residual          L2-NORM 
          0                 1           2             5   13     1       0.3370477097E-02       5   13    1         0.1812503117E+00      0.3884180145E+00
          0                 2           2             5   13     1      -0.3338525312E-03       5   13    1        -0.1811905735E-01      0.3848040404E-01
          0                 3           1             5   13     1       0.2976277209E-04       5   13    1         0.1630212819E-02      0.3449704347E-02

    ------------------------------------------------
       NWT REQUIRED            3 OUTER ITERATIONS 
       AND A TOTAL OF          5 INNER ITERATIONS.
    ------------------------------------------------

 NO OUTPUT CONTROL FOR STRESS PERIOD   24   TIME STEP    7
 
 SOLVING FOR HEAD 
                                                   Max.-Head-Change                         Max.-Flux-Residual
  Residual-Control   Outer-Iter.   Inner-Iter.     Column Row Layer    Maximum-Head-Change  Column Row Layer    Maximum-Flux-Residual          L2-NORM 
          0                 1           2             5   13     1       0.3259046073E-02       5   13    1         0.1752203013E+00      0.3795535865E+00
          0                 2           2             5   13     1      -0.3228141134E-03       5   13    1        -0.1751623322E-01      0.3759857120E-01
          0                 3           1             5   13     1       0.2877578661E-04       5   13    1         0.1575876622E-02      0.3370125280E-02

    ------------------------------------------------
       NWT REQUIRED            3 OUTER ITERATIONS 
       AND A TOTAL OF          5 INNER ITERATIONS.
    ------------------------------------------------

 NO OUTPUT CONTROL FOR STRESS PERIOD   24   TIME STEP    8
 
 SOLVING FOR HEAD 
                                                   Max.-Head-Change                         Max.-Flux-Residual
  Residual-Control   Outer-Iter.   Inner-Iter.     Column Row Layer    Maximum-Head-Change  Column Row Layer    Maximum-Flux-Residual          L2-NORM 
          0                 1           2             5   13     1       0.3151826752E-02       5   13    1         0.1694189387E+00      0.3711733220E+00
          0                 2           2             5   13     1      -0.3121916051E-03       5   13    1        -0.1693614872E-01      0.3676523572E-01
          0                 3           1             5   13     1       0.2782822609E-04       5   13    1         0.1523599048E-02      0.3296220983E-02

    ------------------------------------------------
       NWT REQUIRED            3 OUTER ITERATIONS 
       AND A TOTAL OF          5 INNER ITERATIONS.
    ------------------------------------------------

 NO OUTPUT CONTROL FOR STRESS PERIOD   24   TIME STEP    9
 
 SOLVING FOR HEAD 
                                                   Max.-Head-Change                         Max.-Flux-Residual
  Residual-Control   Outer-Iter.   Inner-Iter.     Column Row Layer    Maximum-Head-Change  Column Row Layer    Maximum-Flux-Residual          L2-NORM 
          0                 1           2             5   13     1       0.3048871442E-02       5   13    1         0.1638491536E+00      0.3632628873E+00
          0                 2           2             5   13     1      -0.3019949947E-03       5   13    1        -0.1637942130E-01      0.3597886470E-01
          0                 3           1             5   13     1       0.2692174122E-04       5   13    1         0.1473647801E-02      0.3226160870E-02

    ------------------------------------------------
       NWT REQUIRED            3 OUTER ITERATIONS 
       AND A TOTAL OF          5 INNER ITERATIONS.
    ------------------------------------------------

 NO OUTPUT CONTROL FOR STRESS PERIOD   24   TIME STEP   10
 
 SOLVING FOR HEAD 
                                                   Max.-Head-Change                         Max.-Flux-Residual
  Residual-Control   Outer-Iter.   Inner-Iter.     Column Row Layer    Maximum-Head-Change  Column Row Layer    Maximum-Flux-Residual          L2-NORM 
          0                 1           2             5   13     1       0.2949982951E-02       5   13    1         0.1585003245E+00      0.3557610160E+00
          0                 2           2             5   13     1      -0.2921968089E-03       5   13    1        -0.1584453989E-01      0.3523256640E-01
          0                 3           1             5   13     1       0.2604646301E-04       5   13    1         0.1425424860E-02      0.3159435245E-02

    ------------------------------------------------
       NWT REQUIRED            3 OUTER ITERATIONS 
       AND A TOTAL OF          5 INNER ITERATIONS.
    ------------------------------------------------

 NO OUTPUT CONTROL FOR STRESS PERIOD   24   TIME STEP   11
 
 SOLVING FOR HEAD 
                                                   Max.-Head-Change                         Max.-Flux-Residual
  Residual-Control   Outer-Iter.   Inner-Iter.     Column Row Layer    Maximum-Head-Change  Column Row Layer    Maximum-Flux-Residual          L2-NORM 
          0                 1           2             5   13     1       0.2854867752E-02       5   13    1         0.1533563658E+00      0.3486594113E+00
          0                 2           2             5   13     1      -0.2827743709E-03       5   13    1        -0.1533025834E-01      0.3452623245E-01
          0                 3           1             5   13     1       0.2520469518E-04       5   13    1         0.1379060873E-02      0.3096070739E-02

    ------------------------------------------------
       NWT REQUIRED            3 OUTER ITERATIONS 
       AND A TOTAL OF          5 INNER ITERATIONS.
    ------------------------------------------------

 NO OUTPUT CONTROL FOR STRESS PERIOD   24   TIME STEP   12
 
 SOLVING FOR HEAD 
                                                   Max.-Head-Change                         Max.-Flux-Residual
  Residual-Control   Outer-Iter.   Inner-Iter.     Column Row Layer    Maximum-Head-Change  Column Row Layer    Maximum-Flux-Residual          L2-NORM 
          0                 1           2             5   13     1       0.2763354870E-02       5   13    1         0.1484079751E+00      0.3419273446E+00
          0                 2           2             5   13     1      -0.2737096191E-03       5   13    1        -0.1483557194E-01      0.3385673857E-01
          0                 3           1             5   13     1       0.2439934497E-04       5   13    1         0.1334705622E-02      0.3036335873E-02

    ------------------------------------------------
       NWT REQUIRED            3 OUTER ITERATIONS 
       AND A TOTAL OF          5 INNER ITERATIONS.
    ------------------------------------------------

 NO OUTPUT CONTROL FOR STRESS PERIOD   24   TIME STEP   13
 
 SOLVING FOR HEAD 
                                                   Max.-Head-Change                         Max.-Flux-Residual
  Residual-Control   Outer-Iter.   Inner-Iter.     Column Row Layer    Maximum-Head-Change  Column Row Layer    Maximum-Flux-Residual          L2-NORM 
          0                 1           2             5   13     1       0.2675406466E-02       5   13    1         0.1436532094E+00      0.3355225105E+00
          0                 2           2             5   13     1      -0.2649978438E-03       5   13    1        -0.1436023335E-01      0.3321946408E-01
          0                 3           1             5   13     1       0.2362218967E-04       5   13    1         0.1291907595E-02      0.2979309714E-02

    ------------------------------------------------
       NWT REQUIRED            3 OUTER ITERATIONS 
       AND A TOTAL OF          5 INNER ITERATIONS.
    ------------------------------------------------

 NO OUTPUT CONTROL FOR STRESS PERIOD   24   TIME STEP   14
 
 SOLVING FOR HEAD 
                                                   Max.-Head-Change                         Max.-Flux-Residual
  Residual-Control   Outer-Iter.   Inner-Iter.     Column Row Layer    Maximum-Head-Change  Column Row Layer    Maximum-Flux-Residual          L2-NORM 
          0                 1           2             5   13     1       0.2590859955E-02       5   13    1         0.1390831407E+00      0.3294533134E+00
          0                 2           2             5   13     1      -0.2566215920E-03       5   13    1        -0.1390328006E-01      0.3261621508E-01
          0                 3           1             5   13     1       0.2287397892E-04       5   13    1         0.1250717310E-02      0.2925658771E-02

    ------------------------------------------------
       NWT REQUIRED            3 OUTER ITERATIONS 
       AND A TOTAL OF          5 INNER ITERATIONS.
    ------------------------------------------------

 NO OUTPUT CONTROL FOR STRESS PERIOD   24   TIME STEP   15
 
 SOLVING FOR HEAD 
                                                   Max.-Head-Change                         Max.-Flux-Residual
  Residual-Control   Outer-Iter.   Inner-Iter.     Column Row Layer    Maximum-Head-Change  Column Row Layer    Maximum-Flux-Residual          L2-NORM 
          0                 1           2             5   13     1       0.2509565248E-02       5   13    1         0.1346896174E+00      0.3236801209E+00
          0                 2           2             5   13     1      -0.2485677972E-03       5   13    1        -0.1346399757E-01      0.3204150165E-01
          0                 3           1             5   13     1       0.2215748417E-04       5   13    1         0.1211271669E-02      0.2874201167E-02

    ------------------------------------------------
       NWT REQUIRED            3 OUTER ITERATIONS 
       AND A TOTAL OF          5 INNER ITERATIONS.
    ------------------------------------------------

 NO OUTPUT CONTROL FOR STRESS PERIOD   24   TIME STEP   16
 
 SOLVING FOR HEAD 
                                                   Max.-Head-Change                         Max.-Flux-Residual
  Residual-Control   Outer-Iter.   Inner-Iter.     Column Row Layer    Maximum-Head-Change  Column Row Layer    Maximum-Flux-Residual          L2-NORM 
          0                 1           2             5   13     1       0.2431263564E-02       5   13    1         0.1304584949E+00      0.3181821394E+00
          0                 2           2             5   13     1      -0.2408103257E-03       5   13    1        -0.1304094068E-01      0.3149492370E-01
          0                 3           1             5   13     1       0.2146543938E-04       5   13    1         0.1173182687E-02      0.2825418372E-02

    ------------------------------------------------
       NWT REQUIRED            3 OUTER ITERATIONS 
       AND A TOTAL OF          5 INNER ITERATIONS.
    ------------------------------------------------

 NO OUTPUT CONTROL FOR STRESS PERIOD   24   TIME STEP   17
 
 SOLVING FOR HEAD 
                                                   Max.-Head-Change                         Max.-Flux-Residual
  Residual-Control   Outer-Iter.   Inner-Iter.     Column Row Layer    Maximum-Head-Change  Column Row Layer    Maximum-Flux-Residual          L2-NORM 
          0                 1           2             5   13     1       0.2355943374E-02       5   13    1         0.1263892164E+00      0.3129481189E+00
          0                 2           2             5   13     1      -0.2333525956E-03       5   13    1        -0.1263430186E-01      0.3097464371E-01
          0                 3           1             5   13     1       0.2079979205E-04       5   13    1         0.1136558161E-02      0.2778830264E-02

    ------------------------------------------------
       NWT REQUIRED            3 OUTER ITERATIONS 
       AND A TOTAL OF          5 INNER ITERATIONS.
    ------------------------------------------------

 NO OUTPUT CONTROL FOR STRESS PERIOD   24   TIME STEP   18
 
 SOLVING FOR HEAD 
                                                   Max.-Head-Change                         Max.-Flux-Residual
  Residual-Control   Outer-Iter.   Inner-Iter.     Column Row Layer    Maximum-Head-Change  Column Row Layer    Maximum-Flux-Residual          L2-NORM 
          0                 1           2             5   13     1       0.2283583441E-02       5   13    1         0.1224807443E+00      0.3079644583E+00
          0                 2           2             5   13     1      -0.2261851741E-03       5   13    1        -0.1224357296E-01      0.3047931699E-01
          0                 3           1             5   13     1       0.2016485112E-04       5   13    1         0.1101608636E-02      0.2734742541E-02

    ------------------------------------------------
       NWT REQUIRED            3 OUTER ITERATIONS 
       AND A TOTAL OF          5 INNER ITERATIONS.
    ------------------------------------------------

 NO OUTPUT CONTROL FOR STRESS PERIOD   24   TIME STEP   19
 
 SOLVING FOR HEAD 
                                                   Max.-Head-Change                         Max.-Flux-Residual
  Residual-Control   Outer-Iter.   Inner-Iter.     Column Row Layer    Maximum-Head-Change  Column Row Layer    Maximum-Flux-Residual          L2-NORM 
          0                 1           2             2    2     1      -0.2245119349E-02       5   13    1         0.1187133211E+00      0.3032071512E+00
          0                 2           2             2    2     1       0.2225496364E-03       5   13    1        -0.1186691451E-01      0.3000604845E-01
          0                 3           1             2    2     1      -0.1984947114E-04       5   13    1         0.1067581004E-02      0.2691985071E-02

    ------------------------------------------------
       NWT REQUIRED            3 OUTER ITERATIONS 
       AND A TOTAL OF          5 INNER ITERATIONS.
    ------------------------------------------------

 NO OUTPUT CONTROL FOR STRESS PERIOD   24   TIME STEP   20
 
 SOLVING FOR HEAD 
                                                   Max.-Head-Change                         Max.-Flux-Residual
  Residual-Control   Outer-Iter.   Inner-Iter.     Column Row Layer    Maximum-Head-Change  Column Row Layer    Maximum-Flux-Residual          L2-NORM 
          0                 1           2             2    2     1      -0.2231102554E-02       2    2    1        -0.1165709152E+00      0.2986652338E+00
          0                 2           2             2    2     1       0.2211601516E-03       2    2    1         0.1165708726E-01      0.2955436495E-01
          0                 3           1             2    2     1      -0.1972553773E-04       2    2    1        -0.1049136694E-02      0.2651717581E-02

    ------------------------------------------------
       NWT REQUIRED            3 OUTER ITERATIONS 
       AND A TOTAL OF          5 INNER ITERATIONS.
    ------------------------------------------------

 NO OUTPUT CONTROL FOR STRESS PERIOD   24   TIME STEP   21
 
 SOLVING FOR HEAD 
                                                   Max.-Head-Change                         Max.-Flux-Residual
  Residual-Control   Outer-Iter.   Inner-Iter.     Column Row Layer    Maximum-Head-Change  Column Row Layer    Maximum-Flux-Residual          L2-NORM 
          0                 1           2             2    2     1      -0.2217275004E-02       2    2    1        -0.1158436274E+00      0.2943265188E+00
          0                 2           2             2    2     1       0.2197894249E-03       2    2    1         0.1158435864E-01      0.2912352805E-01
          0                 3           1             2    2     1      -0.1960327823E-04       2    2    1        -0.1042591152E-02      0.2613330093E-02

    ------------------------------------------------
       NWT REQUIRED            3 OUTER ITERATIONS 
       AND A TOTAL OF          5 INNER ITERATIONS.
    ------------------------------------------------

 NO OUTPUT CONTROL FOR STRESS PERIOD   24   TIME STEP   22
 
 SOLVING FOR HEAD 
                                                   Max.-Head-Change                         Max.-Flux-Residual
  Residual-Control   Outer-Iter.   Inner-Iter.     Column Row Layer    Maximum-Head-Change  Column Row Layer    Maximum-Flux-Residual          L2-NORM 
          0                 1           2             2    2     1      -0.2203545852E-02       2    2    1        -0.1151215782E+00      0.2901723277E+00
          0                 2           2             2    2     1       0.2184284457E-03       2    2    1         0.1151215383E-01      0.2871038209E-01
          0                 3           1             2    2     1      -0.1948188663E-04       2    2    1        -0.1036092713E-02      0.2576359569E-02

    ------------------------------------------------
       NWT REQUIRED            3 OUTER ITERATIONS 
       AND A TOTAL OF          5 INNER ITERATIONS.
    ------------------------------------------------

 NO OUTPUT CONTROL FOR STRESS PERIOD   24   TIME STEP   23
 
 SOLVING FOR HEAD 
                                                   Max.-Head-Change                         Max.-Flux-Residual
  Residual-Control   Outer-Iter.   Inner-Iter.     Column Row Layer    Maximum-Head-Change  Column Row Layer    Maximum-Flux-Residual          L2-NORM 
          0                 1           2             2    2     1      -0.2190088399E-02       2    2    1        -0.1144137967E+00      0.2862020066E+00
          0                 2           2             2    2     1       0.2170943940E-03       2    2    1         0.1144137582E-01      0.2831639679E-01
          0                 3           1             2    2     1      -0.1936289737E-04       2    2    1        -0.1029722688E-02      0.2541718955E-02

    ------------------------------------------------
       NWT REQUIRED            3 OUTER ITERATIONS 
       AND A TOTAL OF          5 INNER ITERATIONS.
    ------------------------------------------------

 NO OUTPUT CONTROL FOR STRESS PERIOD   24   TIME STEP   24
 
 SOLVING FOR HEAD 
                                                   Max.-Head-Change                         Max.-Flux-Residual
  Residual-Control   Outer-Iter.   Inner-Iter.     Column Row Layer    Maximum-Head-Change  Column Row Layer    Maximum-Flux-Residual          L2-NORM 
          0                 1           2             2    2     1      -0.2176723211E-02       2    2    1        -0.1137109514E+00      0.2824016320E+00
          0                 2           2             2    2     1       0.2157694874E-03       2    2    1         0.1137109139E-01      0.2793938448E-01
          0                 3           1             2    2     1      -0.1924472320E-04       2    2    1        -0.1023397088E-02      0.2508458722E-02

    ------------------------------------------------
       NWT REQUIRED            3 OUTER ITERATIONS 
       AND A TOTAL OF          5 INNER ITERATIONS.
    ------------------------------------------------

 NO OUTPUT CONTROL FOR STRESS PERIOD   24   TIME STEP   25
 
 SOLVING FOR HEAD 
                                                   Max.-Head-Change                         Max.-Flux-Residual
  Residual-Control   Outer-Iter.   Inner-Iter.     Column Row Layer    Maximum-Head-Change  Column Row Layer    Maximum-Flux-Residual          L2-NORM 
          0                 1           2             2    2     1      -0.2163536562E-02       2    2    1        -0.1130174742E+00      0.2787599087E+00
          0                 2           2             2    2     1       0.2144622738E-03       2    2    1         0.1130174380E-01      0.2757653090E-01
          0                 3           1             2    2     1      -0.1912812741E-04       2    2    1        -0.1017155807E-02      0.2474937846E-02

    ------------------------------------------------
       NWT REQUIRED            3 OUTER ITERATIONS 
       AND A TOTAL OF          5 INNER ITERATIONS.
    ------------------------------------------------

 NO OUTPUT CONTROL FOR STRESS PERIOD   24   TIME STEP   26
 
 SOLVING FOR HEAD 
                                                   Max.-Head-Change                         Max.-Flux-Residual
  Residual-Control   Outer-Iter.   Inner-Iter.     Column Row Layer    Maximum-Head-Change  Column Row Layer    Maximum-Flux-Residual          L2-NORM 
          0                 1           2             2    2     1      -0.2150525679E-02       2    2    1        -0.1123332612E+00      0.2752640494E+00
          0                 2           2             2    2     1       0.2131724813E-03       2    2    1         0.1123332260E-01      0.2722913084E-01
          0                 3           1             2    2     1      -0.1901308570E-04       2    2    1        -0.1010997905E-02      0.2443768382E-02

    ------------------------------------------------
       NWT REQUIRED            3 OUTER ITERATIONS 
       AND A TOTAL OF          5 INNER ITERATIONS.
    ------------------------------------------------

 NO OUTPUT CONTROL FOR STRESS PERIOD   24   TIME STEP   27
 
 SOLVING FOR HEAD 
                                                   Max.-Head-Change                         Max.-Flux-Residual
  Residual-Control   Outer-Iter.   Inner-Iter.     Column Row Layer    Maximum-Head-Change  Column Row Layer    Maximum-Flux-Residual          L2-NORM 
          0                 1           2             2    2     1      -0.2137688258E-02       2    2    1        -0.1116581682E+00      0.2719096036E+00
          0                 2           2             2    2     1       0.2118998794E-03       2    2    1         0.1116581343E-01      0.2689620769E-01
          0                 3           1             2    2     1      -0.1889957693E-04       2    2    1        -0.1004922093E-02      0.2413363897E-02

    ------------------------------------------------
       NWT REQUIRED            3 OUTER ITERATIONS 
       AND A TOTAL OF          5 INNER ITERATIONS.
    ------------------------------------------------

 NO OUTPUT CONTROL FOR STRESS PERIOD   24   TIME STEP   28
 
 SOLVING FOR HEAD 
                                                   Max.-Head-Change                         Max.-Flux-Residual
  Residual-Control   Outer-Iter.   Inner-Iter.     Column Row Layer    Maximum-Head-Change  Column Row Layer    Maximum-Flux-Residual          L2-NORM 
          0                 1           2             2    2     1      -0.2081573039E-02       2    2    1        -0.1087188393E+00      0.2688938966E+00
          0                 2           2             2    2     1       0.2063388573E-03       2    2    1         0.1087188102E-01      0.2659737491E-01
          0                 3           1             2    2     1      -0.1840361587E-04       2    2    1        -0.9784681787E-03      0.2387385381E-02

    ------------------------------------------------
       NWT REQUIRED            3 OUTER ITERATIONS 
       AND A TOTAL OF          5 INNER ITERATIONS.
    ------------------------------------------------

 NO OUTPUT CONTROL FOR STRESS PERIOD   24   TIME STEP   29
 
 SOLVING FOR HEAD 
                                                   Max.-Head-Change                         Max.-Flux-Residual
  Residual-Control   Outer-Iter.   Inner-Iter.     Column Row Layer    Maximum-Head-Change  Column Row Layer    Maximum-Flux-Residual          L2-NORM 
          0                 1           2             6    8     1       0.2146428592E-02       6    8    1         0.1190282666E+00      0.2799267320E+00
          0                 2           2             6    8     1      -0.2126918346E-03       6    8    1        -0.1190284529E-01      0.2771453592E-01
          0                 3           1             6    8     1       0.1896840372E-04       6    8    1         0.1071256018E-02      0.2487979180E-02

    ------------------------------------------------
       NWT REQUIRED            3 OUTER ITERATIONS 
       AND A TOTAL OF          5 INNER ITERATIONS.
    ------------------------------------------------

 NO OUTPUT CONTROL FOR STRESS PERIOD   24   TIME STEP   30



 STREAM LISTING     PERIOD     24   STEP       30

 LAYER ROW COL. STREAM  RCH.  FLOW INTO     FLOW TO   FLOW OUT OF   OVRLND.     DIRECT     STREAM       STREAM     STREAM     STREAM   STREAMBED  STREAMBED
                SEG.NO.  NO.  STRM. RCH.    AQUIFER    STRM. RCH.    RUNOFF     PRECIP       ET          HEAD       DEPTH      WIDTH   CONDCTNC.   GRADIENT

   1    1    1     1     1    3.5000E+00  8.3255E-02   3.4167E+00  0.000E+00  0.000E+00  0.000E+00  1.09371E+03  6.654E-01  5.047E+00  2.271E-02  1.222E+00
   1    2    2     1     2    3.4167E+00  1.2792E-01   3.2888E+00  0.000E+00  0.000E+00  0.000E+00  1.08872E+03  6.583E-01  4.995E+00  3.497E-02  1.219E+00
   1    3    3     1     3    3.2888E+00  1.0809E-01   3.1807E+00  0.000E+00  0.000E+00  0.000E+00  1.08307E+03  6.502E-01  4.935E+00  2.961E-02  1.217E+00
   1    3    4     1     4    3.1807E+00  9.8702E-02   3.0820E+00  0.000E+00  0.000E+00  0.000E+00  1.07805E+03  6.428E-01  4.882E+00  2.709E-02  1.214E+00
   1    4    5     2     1    1.0820E+00  2.4731E-01   8.3473E-01  0.000E+00  0.000E+00  0.000E+00  1.07210E+03  1.706E-01  1.200E+01  7.800E-02  1.057E+00
   1    5    6     2     2    8.3473E-01  1.8877E-01   6.4596E-01  0.000E+00  0.000E+00  0.000E+00  1.06666E+03  1.462E-01  1.200E+01  6.000E-02  1.049E+00
   1    6    6     2     3    6.4596E-01  1.8736E-01   4.5860E-01  0.000E+00  0.000E+00  0.000E+00  1.06192E+03  1.226E-01  1.200E+01  6.000E-02  1.041E+00
   1    7    6     2     4    4.5860E-01  1.8574E-01   2.7286E-01  0.000E+00  0.000E+00  0.000E+00  1.05717E+03  9.573E-02  1.200E+01  6.000E-02  1.032E+00
   1    8    6     2     5    2.7286E-01  1.8377E-01   8.9092E-02  0.000E+00  0.000E+00  0.000E+00  1.05242E+03  6.276E-02  1.200E+01  6.000E-02  1.021E+00
   1    3    5     3     1    2.0000E+00  2.8252E-01   1.7175E+00  0.000E+00  0.000E+00  0.000E+00  1.07555E+03  1.909E+00  9.636E+00  7.227E-02  1.955E+00
   1    3    6     3     2    1.7175E+00  2.4905E-01   1.4684E+00  0.000E+00  0.000E+00  0.000E+00  1.07264E+03  1.727E+00  8.909E+00  6.682E-02  1.864E+00
   1    3    7     3     3    1.4684E+00  1.9718E-01   1.2712E+00  0.000E+00  0.000E+00  0.000E+00  1.06987E+03  1.555E+00  8.218E+00  5.547E-02  1.777E+00
   1    4    8     3     4    1.2712E+00  2.2567E-01   1.0456E+00  0.000E+00  0.000E+00  0.000E+00  1.06682E+03  1.364E+00  7.455E+00  6.709E-02  1.682E+00
   1    5    8     3     5    1.0456E+00  1.5790E-01   8.8768E-01  0.000E+00  0.000E+00  0.000E+00  1.06362E+03  1.164E+00  6.655E+00  4.991E-02  1.582E+00
   1    6    8     3     6    8.8768E-01  5.5980E-02   8.3170E-01  0.000E+00  0.000E+00  0.000E+00  1.06158E+03  1.036E+00  6.145E+00  1.844E-02  1.518E+00
   1    5   10     4     1    1.0000E+01  9.0919E-02   9.9091E+00  0.000E+00  0.000E+00  0.000E+00  1.07836E+03  6.368E-01  1.000E+01  2.500E-02  1.212E+00
   1    5    9     4     2    9.9091E+00  1.8158E-01   9.7275E+00  0.000E+00  0.000E+00  0.000E+00  1.07154E+03  6.315E-01  1.000E+01  5.000E-02  1.211E+00
   1    6    8     4     3    9.7275E+00  1.2689E-01   9.6006E+00  0.000E+00  0.000E+00  0.000E+00  1.06381E+03  6.256E-01  1.000E+01  3.500E-02  1.209E+00
   1    6    8     5     1    1.0432E+01  2.2686E-01   1.0205E+01  0.000E+00  0.000E+00  0.000E+00  1.05868E+03  6.790E-01  1.542E+01  6.166E-02  1.226E+00
   1    7    7     5     2    1.0205E+01  2.7894E-01   9.9265E+00  0.000E+00  0.000E+00  0.000E+00  1.05417E+03  6.732E-01  1.519E+01  7.594E-02  1.224E+00
   1    8    7     5     3    9.9265E+00  1.9221E-01   9.7343E+00  0.000E+00  0.000E+00  0.000E+00  1.04992E+03  6.676E-01  1.497E+01  5.241E-02  1.223E+00
   1    8    6     5     4    9.7343E+00  1.3577E-01   9.5985E+00  0.000E+00  0.000E+00  0.000E+00  1.04691E+03  6.637E-01  1.482E+01  3.706E-02  1.221E+00
   1    9    6     6     1    9.6876E+00  2.2120E-01   9.4664E+00  0.000E+00  0.000E+00  0.000E+00  1.04341E+03  6.866E-01  1.200E+01  6.000E-02  1.229E+00
   1   10    7     6     2    9.4664E+00  2.2062E-01   9.2458E+00  0.000E+00  0.000E+00  0.000E+00  1.03886E+03  6.771E-01  1.200E+01  6.000E-02  1.226E+00
   1   11    7     6     3    9.2458E+00  2.2005E-01   9.0258E+00  0.000E+00  0.000E+00  0.000E+00  1.03430E+03  6.674E-01  1.200E+01  6.000E-02  1.222E+00
   1   12    7     6     4    9.0258E+00  2.1947E-01   8.8063E+00  0.000E+00  0.000E+00  0.000E+00  1.02975E+03  6.578E-01  1.200E+01  6.000E-02  1.219E+00
   1   13    7     6     5    8.8063E+00 -1.0459E-01   8.9109E+00  0.000E+00  0.000E+00  0.000E+00  1.02656E+03  6.552E-01  1.200E+01  2.400E-01 -1.453E-01
   1   14    9     7     1    1.5000E+02  1.3407E+00   1.4866E+02  0.000E+00  0.000E+00  0.000E+00  1.03987E+03  2.288E+00  5.529E+01  5.593E-01  7.990E-01
   1   13    8     7     2    1.4866E+02  1.8496E+00   1.4681E+02  0.000E+00  0.000E+00  0.000E+00  1.03478E+03  2.279E+00  5.526E+01  6.148E-01  1.003E+00
   1   13    7     7     3    1.4681E+02  1.5019E+00   1.4531E+02  0.000E+00  0.000E+00  0.000E+00  1.02969E+03  2.270E+00  5.522E+01  5.584E-01  8.965E-01
   1   13    6     8     1    1.5422E+02  8.6933E-01   1.5335E+02  0.000E+00  0.000E+00  0.000E+00  1.02472E+03  2.843E+00  4.123E+01  4.201E-01  6.897E-01
   1   13    5     8     2    1.5335E+02  1.4318E-01   1.5321E+02  0.000E+00  0.000E+00  0.000E+00  1.01846E+03  2.840E+00  4.118E+01  4.196E-01  1.137E-01
   1   13    4     8     3    1.5321E+02 -2.5597E+00   1.5577E+02  0.000E+00  0.000E+00  0.000E+00  1.01222E+03  2.848E+00  4.130E+01  4.208E+00 -2.027E-01
   1   13    3     8     4    1.5577E+02 -3.6908E+00   1.5946E+02  0.000E+00  0.000E+00  0.000E+00  1.00599E+03  2.870E+00  4.161E+01  4.240E+00 -2.901E-01
   1   13    2     8     5    1.5946E+02 -2.5749E+00   1.6203E+02  0.000E+00  0.000E+00  0.000E+00  9.99766E+02  2.891E+00  4.192E+01  4.272E+00 -2.009E-01
   1   13    1     8     6    1.6203E+02 -1.9449E+00   1.6398E+02  0.000E+00  0.000E+00  0.000E+00  9.94781E+02  2.906E+00  4.214E+01  2.576E+00 -2.516E-01
   1    6    8     9     1    0.0000E+00  0.0000E+00   0.0000E+00  0.000E+00  0.000E+00  0.000E+00  1.07850E+03  0.000E+00  4.000E+00  0.000E+00  1.000E+00





UNSATURATED ZONE PACKAGE VOLUMETRIC BUDGET FOR  TIME STEP    30 STRESS PERIOD   24
  ------------------------------------------------------------------------------



     CUMULATIVE VOLUMES      L**3       RATES FOR THIS TIME STEP      L**3/T
     ------------------                 ------------------------

           IN:                                      IN:
           ---                                      ---
        INFILTRATION =   102392681.9333          INFILTRATION =       0.0000E+00

          OUT:                                     OUT:
          ----                                     ----
              UZF ET =    86329299.3664                UZF ET =           0.0106
        UZF RECHARGE =     3087954.0757          UZF RECHARGE =           0.0039

            IN - OUT =    12975428.4912              IN - OUT =          -0.0145

          STORAGE:                                 STORAGE:
          --------                                 --------
      STORAGE CHANGE =    13006843.7816        STORAGE CHANGE =          -0.0145

 PERCENT DISCREPANCY IS DIFFERENCE BETWEEN IN-OUT MINUS CHANGE IN STORAGE
 DIVIDED BY THE AVERAGE OF IN AND OUT TIMES 100

 PERCENT DISCREPANCY =          -0.01     PERCENT DISCREPANCY =          -0.08






1
  VOLUMETRIC BUDGET FOR ENTIRE MODEL AT END OF TIME STEP   30, STRESS PERIOD  24
  ------------------------------------------------------------------------------

     CUMULATIVE VOLUMES      L**3       RATES FOR THIS TIME STEP      L**3/T
     ------------------                 ------------------------

           IN:                                      IN:
           ---                                      ---
    AWU WELLS            =    15987972.0000      AWU WELLS            =           0.0000
    DIVERSION SEGMENTS   =    86331504.0000      DIVERSION SEGMENTS   =           0.0000
    GW IRRIGATION        =           0.0000      GW IRRIGATION        =           0.0000
    SW IRRIGATION        =           0.0000      SW IRRIGATION        =           0.0000
    EFFICIENCY FACTOR GW =           0.0000      EFFICIENCY FACTOR GW =           0.0000
    EFFICIENCY FACTOR SW =           0.0000      EFFICIENCY FACTOR SW =           0.0000

                TOTAL IN =   102319472.0000                  TOTAL IN =           0.0000

          OUT:                                     OUT:
          ----                                     ----
    AWU WELLS            =           0.0000      AWU WELLS            =           0.0000
    DIVERSION SEGMENTS   =           0.0000      DIVERSION SEGMENTS   =           0.0000
    GW IRRIGATION        =    15987972.0000      GW IRRIGATION        =           0.0000
    SW IRRIGATION        =    86331504.0000      SW IRRIGATION        =           0.0000
    EFFICIENCY FACTOR GW =           0.0000      EFFICIENCY FACTOR GW =           0.0000
    EFFICIENCY FACTOR SW =           0.0000      EFFICIENCY FACTOR SW =           0.0000

               TOTAL OUT =   102319472.0000                 TOTAL OUT =           0.0000

                IN - OUT =           0.0000                  IN - OUT =           0.0000

     PERCENT DISCREPANCY =           0.00         PERCENT DISCREPANCY =           0.00



1
  VOLUMETRIC BUDGET FOR ENTIRE MODEL AT END OF TIME STEP   30, STRESS PERIOD  24
  ------------------------------------------------------------------------------

     CUMULATIVE VOLUMES      L**3       RATES FOR THIS TIME STEP      L**3/T
     ------------------                 ------------------------

           IN:                                      IN:
           ---                                      ---
             STORAGE     =   106809504.0000               STORAGE     =           1.1135
       CONSTANT HEAD     =           0.0000         CONSTANT HEAD     =           0.0000
     HEAD DEP BOUNDS     =    17308074.0000       HEAD DEP BOUNDS     =           0.2861
      STREAM LEAKAGE     =   708229440.0000        STREAM LEAKAGE     =          10.3985
        UZF RECHARGE     =     3087955.7500          UZF RECHARGE     =       3.9349E-03
               GW ET     =           0.0000                 GW ET     =           0.0000
     SURFACE LEAKAGE     =           0.0000       SURFACE LEAKAGE     =           0.0000
    AWU WELLS            =           0.0000      AWU WELLS            =           0.0000

                TOTAL IN =   835434944.0000                  TOTAL IN =          11.8020

          OUT:                                     OUT:
          ----                                     ----
             STORAGE     =   112200544.0000               STORAGE     =           0.6304
       CONSTANT HEAD     =           0.0000         CONSTANT HEAD     =           0.0000
     HEAD DEP BOUNDS     =    17329412.0000       HEAD DEP BOUNDS     =           0.2864
      STREAM LEAKAGE     =   580842432.0000        STREAM LEAKAGE     =          10.8749
        UZF RECHARGE     =           0.0000          UZF RECHARGE     =           0.0000
               GW ET     =   109076288.0000                 GW ET     =       9.9369E-03
     SURFACE LEAKAGE     =           0.0000       SURFACE LEAKAGE     =           0.0000
    AWU WELLS            =    15987972.0000      AWU WELLS            =           0.0000

               TOTAL OUT =   835436608.0000                 TOTAL OUT =          11.8016

                IN - OUT =       -1664.0000                  IN - OUT =       3.9291E-04

     PERCENT DISCREPANCY =          -0.00         PERCENT DISCREPANCY =           0.00






         TIME SUMMARY AT END OF TIME STEP   30 IN STRESS PERIOD   24
                    SECONDS     MINUTES      HOURS       DAYS        YEARS
                    -----------------------------------------------------------
   TIME STEP LENGTH  87600.      1460.0      24.333      1.0139     2.77588E-03
 STRESS PERIOD TIME 2.62800E+06  43800.      730.00      30.417     8.32763E-02
         TOTAL TIME 6.05304E+07 1.00884E+06  16814.      700.58      1.9181    
1
1
                            STRESS PERIOD NO.   25, LENGTH =   2628000.    
                            -----------------------------------------------

                              NUMBER OF TIME STEPS =    30

                               MULTIPLIER FOR DELT =     1.000

                            INITIAL TIME STEP SIZE =   87600.00    

 REUSING NON-PARAMETER GHB CELLS FROM LAST STRESS PERIOD

      2 GHB CELLS

 REUSING STREAM SEGMENT DATA FROM LAST STRESS PERIOD



            AREAL INFILTRATION RATE
 READING ON UNIT   19 WITH FORMAT: (10F4.0)            

            1           2           3           4           5           6           7           8           9          10
 ........................................................................................................................
   1    0.000       0.000       0.000       0.000       0.000       0.000       0.000       0.000       0.000       0.000    
   2    0.000       0.000       0.000       0.000       0.000       0.000       0.000       0.000       0.000       0.000    
   3    0.000       0.000       0.000       0.000       0.000       0.000       0.000       0.000       0.000       0.000    
   4    0.000       0.000       0.000       0.000       0.000       0.000       0.000       0.000       0.000       0.000    
   5    0.000       0.000       0.000       0.000       0.000       0.000       0.000       0.000       0.000       0.000    
   6    0.000       0.000       0.000       0.000       0.000       0.000       0.000       0.000       0.000       0.000    
   7    0.000       0.000       0.000       0.000       0.000       0.000       0.000       0.000       0.000       0.000    
   8    0.000       0.000       0.000       0.000       0.000       0.000       0.000       0.000       0.000       0.000    
   9    0.000       0.000       0.000       0.000       0.000       0.000       0.000       0.000       0.000       0.000    
  10    0.000       0.000       0.000       0.000       0.000       0.000       0.000       0.000       0.000       0.000    
  11    0.000       0.000       0.000       0.000       0.000       0.000       0.000       0.000       0.000       0.000    
  12    0.000       0.000       0.000       0.000       0.000       0.000       0.000       0.000       0.000       0.000    
  13    0.000       0.000       0.000       0.000       0.000       0.000       0.000       0.000       0.000       0.000    
  14    0.000       0.000       0.000       0.000       0.000       0.000       0.000       0.000       0.000       0.000    
  15    0.000       0.000       0.000       0.000       0.000       0.000       0.000       0.000       0.000       0.000    

                  ET RATE =  1.000000E-10

 USING ET EXTINCTION DEPTH FROM PREVIOUS STRESS PERIOD. CURRENT PERIOD IS:      25

 USING EXTINCTION WATER CONTENT FROM PREVIOUS STRESS PERIOD. CURRENT PERIOD IS:      25

 PROCESSING AWU STRESS PERIOD DATA

 READING AWU STRESS PERIOD DATA

 READING IRRIGATION STREAM

 READING IRRIGATION WELL

 READING SUPPLEMENTAL WEL

 END PROCESSING AWU STRESS PERIOD DATA OPTIONS
 
 SOLVING FOR HEAD 
                                                   Max.-Head-Change                         Max.-Flux-Residual
  Residual-Control   Outer-Iter.   Inner-Iter.     Column Row Layer    Maximum-Head-Change  Column Row Layer    Maximum-Flux-Residual          L2-NORM 
          0                 1           2             6    8     1       0.2013394175E-02       6    8    1         0.1116083552E+00      0.2736822663E+00
          0                 2           2             2    2     1       0.1995802476E-03       6    8    1        -0.1116085187E-01      0.2708937721E-01
          0                 3           1             2    2     1      -0.1780083704E-04       6    8    1         0.1004476645E-02      0.2431752504E-02

    ------------------------------------------------
       NWT REQUIRED            3 OUTER ITERATIONS 
       AND A TOTAL OF          5 INNER ITERATIONS.
    ------------------------------------------------

 NO OUTPUT CONTROL FOR STRESS PERIOD   25   TIME STEP    1
 
 SOLVING FOR HEAD 
                                                   Max.-Head-Change                         Max.-Flux-Residual
  Residual-Control   Outer-Iter.   Inner-Iter.     Column Row Layer    Maximum-Head-Change  Column Row Layer    Maximum-Flux-Residual          L2-NORM 
          0                 1           2             2    2     1      -0.2001823292E-02       6    8    1         0.1046908422E+00      0.2679411305E+00
          0                 2           2             2    2     1       0.1984348662E-03       6    8    1        -0.1046909859E-01      0.2651492094E-01
          0                 3           1             2    2     1      -0.1769867460E-04       6    8    1         0.9422188446E-03      0.2380235041E-02

    ------------------------------------------------
       NWT REQUIRED            3 OUTER ITERATIONS 
       AND A TOTAL OF          5 INNER ITERATIONS.
    ------------------------------------------------

 NO OUTPUT CONTROL FOR STRESS PERIOD   25   TIME STEP    2
 
 SOLVING FOR HEAD 
                                                   Max.-Head-Change                         Max.-Flux-Residual
  Residual-Control   Outer-Iter.   Inner-Iter.     Column Row Layer    Maximum-Head-Change  Column Row Layer    Maximum-Flux-Residual          L2-NORM 
          0                 1           2             2    2     1      -0.1990420236E-02       2    2    1        -0.1039377112E+00      0.2626366906E+00
          0                 2           2             2    2     1       0.1973044255E-03       2    2    1         0.1039376890E-01      0.2598413401E-01
          0                 3           1             2    2     1      -0.1759784521E-04       2    2    1        -0.9354381040E-03      0.2332618544E-02

    ------------------------------------------------
       NWT REQUIRED            3 OUTER ITERATIONS 
       AND A TOTAL OF          5 INNER ITERATIONS.
    ------------------------------------------------

 NO OUTPUT CONTROL FOR STRESS PERIOD   25   TIME STEP    3
 
 SOLVING FOR HEAD 
                                                   Max.-Head-Change                         Max.-Flux-Residual
  Residual-Control   Outer-Iter.   Inner-Iter.     Column Row Layer    Maximum-Head-Change  Column Row Layer    Maximum-Flux-Residual          L2-NORM 
          0                 1           2             2    2     1      -0.1979166425E-02       2    2    1        -0.1033460449E+00      0.2577427436E+00
          0                 2           2             2    2     1       0.1961887745E-03       2    2    1         0.1033460235E-01      0.2549499586E-01
          0                 3           1             2    2     1      -0.1749833438E-04       2    2    1        -0.9301131122E-03      0.2288546170E-02

    ------------------------------------------------
       NWT REQUIRED            3 OUTER ITERATIONS 
       AND A TOTAL OF          5 INNER ITERATIONS.
    ------------------------------------------------

 NO OUTPUT CONTROL FOR STRESS PERIOD   25   TIME STEP    4
 
 SOLVING FOR HEAD 
                                                   Max.-Head-Change                         Max.-Flux-Residual
  Residual-Control   Outer-Iter.   Inner-Iter.     Column Row Layer    Maximum-Head-Change  Column Row Layer    Maximum-Flux-Residual          L2-NORM 
          0                 1           2             2    2     1      -0.1967971243E-02       2    2    1        -0.1027575425E+00      0.2531883387E+00
          0                 2           2             2    2     1       0.1950789392E-03       2    2    1         0.1027575219E-01      0.2503954899E-01
          0                 3           1             2    2     1      -0.1739934271E-04       2    2    1        -0.9248166127E-03      0.2247543802E-02

    ------------------------------------------------
       NWT REQUIRED            3 OUTER ITERATIONS 
       AND A TOTAL OF          5 INNER ITERATIONS.
    ------------------------------------------------

 NO OUTPUT CONTROL FOR STRESS PERIOD   25   TIME STEP    5
 
 SOLVING FOR HEAD 
                                                   Max.-Head-Change                         Max.-Flux-Residual
  Residual-Control   Outer-Iter.   Inner-Iter.     Column Row Layer    Maximum-Head-Change  Column Row Layer    Maximum-Flux-Residual          L2-NORM 
          0                 1           2             2    2     1      -0.1957008699E-02       2    2    1        -0.1021812423E+00      0.2489669892E+00
          0                 2           2             2    2     1       0.1939921552E-03       2    2    1         0.1021812224E-01      0.2461847021E-01
          0                 3           1             2    2     1      -0.1730240635E-04       2    2    1        -0.9196299116E-03      0.2209920273E-02

    ------------------------------------------------
       NWT REQUIRED            3 OUTER ITERATIONS 
       AND A TOTAL OF          5 INNER ITERATIONS.
    ------------------------------------------------

 NO OUTPUT CONTROL FOR STRESS PERIOD   25   TIME STEP    6
 
 SOLVING FOR HEAD 
                                                   Max.-Head-Change                         Max.-Flux-Residual
  Residual-Control   Outer-Iter.   Inner-Iter.     Column Row Layer    Maximum-Head-Change  Column Row Layer    Maximum-Flux-Residual          L2-NORM 
          0                 1           2             2    2     1      -0.1946188315E-02       2    2    1        -0.1016124334E+00      0.2450337077E+00
          0                 2           2             2    2     1       0.1929194621E-03       2    2    1         0.1016124142E-01      0.2422507649E-01
          0                 3           1             2    2     1      -0.1720672691E-04       2    2    1        -0.9145106470E-03      0.2174518032E-02

    ------------------------------------------------
       NWT REQUIRED            3 OUTER ITERATIONS 
       AND A TOTAL OF          5 INNER ITERATIONS.
    ------------------------------------------------

 NO OUTPUT CONTROL FOR STRESS PERIOD   25   TIME STEP    7
 
 SOLVING FOR HEAD 
                                                   Max.-Head-Change                         Max.-Flux-Residual
  Residual-Control   Outer-Iter.   Inner-Iter.     Column Row Layer    Maximum-Head-Change  Column Row Layer    Maximum-Flux-Residual          L2-NORM 
          0                 1           2             2    2     1      -0.1935420418E-02       2    2    1        -0.1010464206E+00      0.2413546806E+00
          0                 2           2             2    2     1       0.1918519715E-03       2    2    1         0.1010464022E-01      0.2385922954E-01
          0                 3           1             2    2     1      -0.1711151187E-04       2    2    1        -0.9094165503E-03      0.2141430704E-02

    ------------------------------------------------
       NWT REQUIRED            3 OUTER ITERATIONS 
       AND A TOTAL OF          5 INNER ITERATIONS.
    ------------------------------------------------

 NO OUTPUT CONTROL FOR STRESS PERIOD   25   TIME STEP    8
 
 SOLVING FOR HEAD 
                                                   Max.-Head-Change                         Max.-Flux-Residual
  Residual-Control   Outer-Iter.   Inner-Iter.     Column Row Layer    Maximum-Head-Change  Column Row Layer    Maximum-Flux-Residual          L2-NORM 
          0                 1           2             2    2     1      -0.1924791113E-02       2    2    1        -0.1004877114E+00      0.2379190929E+00
          0                 2           2             2    2     1       0.1907982158E-03       2    2    1         0.1004876936E-01      0.2351574200E-01
          0                 3           1             2    2     1      -0.1701752108E-04       2    2    1        -0.9043881635E-03      0.2110860550E-02

    ------------------------------------------------
       NWT REQUIRED            3 OUTER ITERATIONS 
       AND A TOTAL OF          5 INNER ITERATIONS.
    ------------------------------------------------

 NO OUTPUT CONTROL FOR STRESS PERIOD   25   TIME STEP    9
 
 SOLVING FOR HEAD 
                                                   Max.-Head-Change                         Max.-Flux-Residual
  Residual-Control   Outer-Iter.   Inner-Iter.     Column Row Layer    Maximum-Head-Change  Column Row Layer    Maximum-Flux-Residual          L2-NORM 
          0                 1           2             2    2     1      -0.1914385823E-02       2    2    1        -0.9994077331E-01      0.2346875298E+00
          0                 2           2             2    2     1       0.1897666647E-03       2    2    1         0.9994075620E-02      0.2319373289E-01
          0                 3           1             2    2     1      -0.1692551143E-04       2    2    1        -0.8994657347E-03      0.2081970516E-02

    ------------------------------------------------
       NWT REQUIRED            3 OUTER ITERATIONS 
       AND A TOTAL OF          5 INNER ITERATIONS.
    ------------------------------------------------

 NO OUTPUT CONTROL FOR STRESS PERIOD   25   TIME STEP   10
 
 SOLVING FOR HEAD 
                                                   Max.-Head-Change                         Max.-Flux-Residual
  Residual-Control   Outer-Iter.   Inner-Iter.     Column Row Layer    Maximum-Head-Change  Column Row Layer    Maximum-Flux-Residual          L2-NORM 
          0                 1           2             2    2     1      -0.1904026737E-02       2    2    1        -0.9939629899E-01      0.2316493773E+00
          0                 2           2             2    2     1       0.1887396911E-03       2    2    1         0.9939628257E-02      0.2289116087E-01
          0                 3           1             2    2     1      -0.1683390970E-04       2    2    1        -0.8945654945E-03      0.2054937499E-02

    ------------------------------------------------
       NWT REQUIRED            3 OUTER ITERATIONS 
       AND A TOTAL OF          5 INNER ITERATIONS.
    ------------------------------------------------

 NO OUTPUT CONTROL FOR STRESS PERIOD   25   TIME STEP   11
 
 SOLVING FOR HEAD 
                                                   Max.-Head-Change                         Max.-Flux-Residual
  Residual-Control   Outer-Iter.   Inner-Iter.     Column Row Layer    Maximum-Head-Change  Column Row Layer    Maximum-Flux-Residual          L2-NORM 
          0                 1           2             2    2     1      -0.1893800455E-02       2    2    1        -0.9885880207E-01      0.2287874307E+00
          0                 2           2             2    2     1       0.1877258791E-03       2    2    1         0.9885878625E-02      0.2260697316E-01
          0                 3           1             2    2     1      -0.1674348187E-04       2    2    1        -0.8897280171E-03      0.2029533500E-02

    ------------------------------------------------
       NWT REQUIRED            3 OUTER ITERATIONS 
       AND A TOTAL OF          5 INNER ITERATIONS.
    ------------------------------------------------

 NO OUTPUT CONTROL FOR STRESS PERIOD   25   TIME STEP   12
 
 SOLVING FOR HEAD 
                                                   Max.-Head-Change                         Max.-Flux-Residual
  Residual-Control   Outer-Iter.   Inner-Iter.     Column Row Layer    Maximum-Head-Change  Column Row Layer    Maximum-Flux-Residual          L2-NORM 
          0                 1           2             2    2     1      -0.1883704603E-02       2    2    1        -0.9832819607E-01      0.2260824526E+00
          0                 2           2             2    2     1       0.1867249943E-03       2    2    1         0.9832818076E-02      0.2233752705E-01
          0                 3           1             2    2     1      -0.1665420732E-04       2    2    1        -0.8849525823E-03      0.2005277812E-02

    ------------------------------------------------
       NWT REQUIRED            3 OUTER ITERATIONS 
       AND A TOTAL OF          5 INNER ITERATIONS.
    ------------------------------------------------

 NO OUTPUT CONTROL FOR STRESS PERIOD   25   TIME STEP   13
 
 SOLVING FOR HEAD 
                                                   Max.-Head-Change                         Max.-Flux-Residual
  Residual-Control   Outer-Iter.   Inner-Iter.     Column Row Layer    Maximum-Head-Change  Column Row Layer    Maximum-Flux-Residual          L2-NORM 
          0                 1           2             2    2     1      -0.1873737579E-02       2    2    1        -0.9780435776E-01      0.2235277746E+00
          0                 2           2             2    2     1       0.1857368781E-03       2    2    1         0.9780434322E-02      0.2208333653E-01
          0                 3           1             2    2     1      -0.1656607130E-04       2    2    1        -0.8802380520E-03      0.1982338052E-02

    ------------------------------------------------
       NWT REQUIRED            3 OUTER ITERATIONS 
       AND A TOTAL OF          5 INNER ITERATIONS.
    ------------------------------------------------

 NO OUTPUT CONTROL FOR STRESS PERIOD   25   TIME STEP   14
 
 SOLVING FOR HEAD 
                                                   Max.-Head-Change                         Max.-Flux-Residual
  Residual-Control   Outer-Iter.   Inner-Iter.     Column Row Layer    Maximum-Head-Change  Column Row Layer    Maximum-Flux-Residual          L2-NORM 
          0                 1           2             2    2     1      -0.1863897080E-02       2    2    1        -0.9728720408E-01      0.2211041673E+00
          0                 2           2             2    2     1       0.1847613012E-03       2    2    1         0.9728719002E-02      0.2184279803E-01
          0                 3           1             2    2     1      -0.1647905344E-04       2    2    1        -0.8755836676E-03      0.1960807703E-02

    ------------------------------------------------
       NWT REQUIRED            3 OUTER ITERATIONS 
       AND A TOTAL OF          5 INNER ITERATIONS.
    ------------------------------------------------

 NO OUTPUT CONTROL FOR STRESS PERIOD   25   TIME STEP   15
 
 SOLVING FOR HEAD 
                                                   Max.-Head-Change                         Max.-Flux-Residual
  Residual-Control   Outer-Iter.   Inner-Iter.     Column Row Layer    Maximum-Head-Change  Column Row Layer    Maximum-Flux-Residual          L2-NORM 
          0                 1           2             2    2     1      -0.1854181562E-02       2    2    1        -0.9677661548E-01      0.2187971736E+00
          0                 2           2             2    2     1       0.1837981115E-03       2    2    1         0.9677660200E-02      0.2161382755E-01
          0                 3           1             2    2     1      -0.1639314047E-04       2    2    1        -0.8709883859E-03      0.1940378495E-02

    ------------------------------------------------
       NWT REQUIRED            3 OUTER ITERATIONS 
       AND A TOTAL OF          5 INNER ITERATIONS.
    ------------------------------------------------

 NO OUTPUT CONTROL FOR STRESS PERIOD   25   TIME STEP   16
 
 SOLVING FOR HEAD 
                                                   Max.-Head-Change                         Max.-Flux-Residual
  Residual-Control   Outer-Iter.   Inner-Iter.     Column Row Layer    Maximum-Head-Change  Column Row Layer    Maximum-Flux-Residual          L2-NORM 
          0                 1           2             2    2     1      -0.1844589180E-02       2    2    1        -0.9627251186E-01      0.2166063422E+00
          0                 2           2             2    2     1       0.1828471258E-03       2    2    1         0.9627249876E-02      0.2139653529E-01
          0                 3           1             2    2     1      -0.1630831643E-04       2    2    1        -0.8664514817E-03      0.1920603262E-02

    ------------------------------------------------
       NWT REQUIRED            3 OUTER ITERATIONS 
       AND A TOTAL OF          5 INNER ITERATIONS.
    ------------------------------------------------

 NO OUTPUT CONTROL FOR STRESS PERIOD   25   TIME STEP   17
 
 SOLVING FOR HEAD 
                                                   Max.-Head-Change                         Max.-Flux-Residual
  Residual-Control   Outer-Iter.   Inner-Iter.     Column Row Layer    Maximum-Head-Change  Column Row Layer    Maximum-Flux-Residual          L2-NORM 
          0                 1           2             2    2     1      -0.1835118065E-02       2    2    1        -0.9577479752E-01      0.2145119559E+00
          0                 2           2             2    2     1       0.1819081568E-03       2    2    1         0.9577478505E-02      0.2118903604E-01
          0                 3           1             2    2     1      -0.1622456291E-04       2    2    1        -0.8619720480E-03      0.1902538671E-02

    ------------------------------------------------
       NWT REQUIRED            3 OUTER ITERATIONS 
       AND A TOTAL OF          5 INNER ITERATIONS.
    ------------------------------------------------

 NO OUTPUT CONTROL FOR STRESS PERIOD   25   TIME STEP   18
 
 SOLVING FOR HEAD 
                                                   Max.-Head-Change                         Max.-Flux-Residual
  Residual-Control   Outer-Iter.   Inner-Iter.     Column Row Layer    Maximum-Head-Change  Column Row Layer    Maximum-Flux-Residual          L2-NORM 
          0                 1           2             2    2     1      -0.1825766384E-02       2    2    1        -0.9528337552E-01      0.2125184553E+00
          0                 2           2             2    2     1       0.1809810326E-03       2    2    1         0.9528336359E-02      0.2098871466E-01
          0                 3           1             2    2     1      -0.1614186712E-04       2    2    1        -0.8575492483E-03      0.1884345717E-02

    ------------------------------------------------
       NWT REQUIRED            3 OUTER ITERATIONS 
       AND A TOTAL OF          5 INNER ITERATIONS.
    ------------------------------------------------

 NO OUTPUT CONTROL FOR STRESS PERIOD   25   TIME STEP   19
 
 SOLVING FOR HEAD 
                                                   Max.-Head-Change                         Max.-Flux-Residual
  Residual-Control   Outer-Iter.   Inner-Iter.     Column Row Layer    Maximum-Head-Change  Column Row Layer    Maximum-Flux-Residual          L2-NORM 
          0                 1           2             2    2     1      -0.1816445196E-02       2    2    1        -0.9479357104E-01      0.2106099077E+00
          0                 2           2             2    2     1       0.1800569216E-03       2    2    1         0.9479355960E-02      0.2080281858E-01
          0                 3           1             2    2     1      -0.1605943951E-04       2    2    1        -0.8531410191E-03      0.1867664584E-02

    ------------------------------------------------
       NWT REQUIRED            3 OUTER ITERATIONS 
       AND A TOTAL OF          5 INNER ITERATIONS.
    ------------------------------------------------

 NO OUTPUT CONTROL FOR STRESS PERIOD   25   TIME STEP   20
 
 SOLVING FOR HEAD 
                                                   Max.-Head-Change                         Max.-Flux-Residual
  Residual-Control   Outer-Iter.   Inner-Iter.     Column Row Layer    Maximum-Head-Change  Column Row Layer    Maximum-Flux-Residual          L2-NORM 
          0                 1           2             2    2     1      -0.1807327749E-02       2    2    1        -0.9431450781E-01      0.2087867257E+00
          0                 2           2             2    2     1       0.1791530071E-03       2    2    1         0.9431449666E-02      0.2062272111E-01
          0                 3           1             2    2     1      -0.1597881377E-04       2    2    1        -0.8488294762E-03      0.1851523810E-02

    ------------------------------------------------
       NWT REQUIRED            3 OUTER ITERATIONS 
       AND A TOTAL OF          5 INNER ITERATIONS.
    ------------------------------------------------

 NO OUTPUT CONTROL FOR STRESS PERIOD   25   TIME STEP   21
 
 SOLVING FOR HEAD 
                                                   Max.-Head-Change                         Max.-Flux-Residual
  Residual-Control   Outer-Iter.   Inner-Iter.     Column Row Layer    Maximum-Head-Change  Column Row Layer    Maximum-Flux-Residual          L2-NORM 
          0                 1           2             2    2     1      -0.1798236899E-02       2    2    1        -0.9383685759E-01      0.2070268369E+00
          0                 2           2             2    2     1       0.1782517307E-03       2    2    1         0.9383684711E-02      0.2044874905E-01
          0                 3           1             2    2     1      -0.1589842257E-04       2    2    1        -0.8445306249E-03      0.1835834656E-02

    ------------------------------------------------
       NWT REQUIRED            3 OUTER ITERATIONS 
       AND A TOTAL OF          5 INNER ITERATIONS.
    ------------------------------------------------

 NO OUTPUT CONTROL FOR STRESS PERIOD   25   TIME STEP   22
 
 SOLVING FOR HEAD 
                                                   Max.-Head-Change                         Max.-Flux-Residual
  Residual-Control   Outer-Iter.   Inner-Iter.     Column Row Layer    Maximum-Head-Change  Column Row Layer    Maximum-Flux-Residual          L2-NORM 
          0                 1           2             2    2     1      -0.1789347130E-02       2    2    1        -0.9336974565E-01      0.2053413509E+00
          0                 2           2             2    2     1       0.1773703783E-03       2    2    1         0.9336973558E-02      0.2028237292E-01
          0                 3           1             2    2     1      -0.1581980867E-04       2    2    1        -0.8403266300E-03      0.1820993158E-02

    ------------------------------------------------
       NWT REQUIRED            3 OUTER ITERATIONS 
       AND A TOTAL OF          5 INNER ITERATIONS.
    ------------------------------------------------

 NO OUTPUT CONTROL FOR STRESS PERIOD   25   TIME STEP   23
 
 SOLVING FOR HEAD 
                                                   Max.-Head-Change                         Max.-Flux-Residual
  Residual-Control   Outer-Iter.   Inner-Iter.     Column Row Layer    Maximum-Head-Change  Column Row Layer    Maximum-Flux-Residual          L2-NORM 
          0                 1           2             2    2     1      -0.1780480549E-02       2    2    1        -0.9290390943E-01      0.2037263124E+00
          0                 2           2             2    2     1       0.1764913294E-03       2    2    1         0.9290389969E-02      0.2012299566E-01
          0                 3           1             2    2     1      -0.1574140033E-04       2    2    1        -0.8361341181E-03      0.1806628188E-02

    ------------------------------------------------
       NWT REQUIRED            3 OUTER ITERATIONS 
       AND A TOTAL OF          5 INNER ITERATIONS.
    ------------------------------------------------

 NO OUTPUT CONTROL FOR STRESS PERIOD   25   TIME STEP   24
 
 SOLVING FOR HEAD 
                                                   Max.-Head-Change                         Max.-Flux-Residual
  Residual-Control   Outer-Iter.   Inner-Iter.     Column Row Layer    Maximum-Head-Change  Column Row Layer    Maximum-Flux-Residual          L2-NORM 
          0                 1           2             2    2     1      -0.1771724132E-02       2    2    1        -0.9244385519E-01      0.2021644523E+00
          0                 2           2             2    2     1       0.1756231986E-03       2    2    1         0.9244384592E-02      0.1996903228E-01
          0                 3           1             2    2     1      -0.1566396549E-04       2    2    1        -0.8319936260E-03      0.1792914128E-02

    ------------------------------------------------
       NWT REQUIRED            3 OUTER ITERATIONS 
       AND A TOTAL OF          5 INNER ITERATIONS.
    ------------------------------------------------

 NO OUTPUT CONTROL FOR STRESS PERIOD   25   TIME STEP   25
 
 SOLVING FOR HEAD 
                                                   Max.-Head-Change                         Max.-Flux-Residual
  Residual-Control   Outer-Iter.   Inner-Iter.     Column Row Layer    Maximum-Head-Change  Column Row Layer    Maximum-Flux-Residual          L2-NORM 
          0                 1           2             2    2     1      -0.1763075504E-02       2    2    1        -0.9198951709E-01      0.2006631561E+00
          0                 2           2             2    2     1       0.1747657497E-03       2    2    1         0.9198950818E-02      0.1981963594E-01
          0                 3           1             2    2     1      -0.1558748328E-04       2    2    1        -0.8279045892E-03      0.1779110464E-02

    ------------------------------------------------
       NWT REQUIRED            3 OUTER ITERATIONS 
       AND A TOTAL OF          5 INNER ITERATIONS.
    ------------------------------------------------

 NO OUTPUT CONTROL FOR STRESS PERIOD   25   TIME STEP   26
 
 SOLVING FOR HEAD 
                                                   Max.-Head-Change                         Max.-Flux-Residual
  Residual-Control   Outer-Iter.   Inner-Iter.     Column Row Layer    Maximum-Head-Change  Column Row Layer    Maximum-Flux-Residual          L2-NORM 
          0                 1           2             2    2     1      -0.1754533813E-02       2    2    1        -0.9154077199E-01      0.1992101155E+00
          0                 2           2             2    2     1       0.1739188995E-03       2    2    1         0.9154076353E-02      0.1967243997E-01
          0                 3           1             2    2     1      -0.1551194683E-04       2    2    1        -0.8238658946E-03      0.1766118393E-02

    ------------------------------------------------
       NWT REQUIRED            3 OUTER ITERATIONS 
       AND A TOTAL OF          5 INNER ITERATIONS.
    ------------------------------------------------

 NO OUTPUT CONTROL FOR STRESS PERIOD   25   TIME STEP   27
 
 SOLVING FOR HEAD 
                                                   Max.-Head-Change                         Max.-Flux-Residual
  Residual-Control   Outer-Iter.   Inner-Iter.     Column Row Layer    Maximum-Head-Change  Column Row Layer    Maximum-Flux-Residual          L2-NORM 
          0                 1           2             2    2     1      -0.1746184961E-02       2    2    1        -0.9110215449E-01      0.1978106951E+00
          0                 2           2             2    2     1       0.1730911611E-03       2    2    1         0.9110214619E-02      0.1953525160E-01
          0                 3           1             2    2     1      -0.1543811449E-04       2    2    1        -0.8199183334E-03      0.1753987532E-02

    ------------------------------------------------
       NWT REQUIRED            3 OUTER ITERATIONS 
       AND A TOTAL OF          5 INNER ITERATIONS.
    ------------------------------------------------

 NO OUTPUT CONTROL FOR STRESS PERIOD   25   TIME STEP   28
 
 SOLVING FOR HEAD 
                                                   Max.-Head-Change                         Max.-Flux-Residual
  Residual-Control   Outer-Iter.   Inner-Iter.     Column Row Layer    Maximum-Head-Change  Column Row Layer    Maximum-Flux-Residual          L2-NORM 
          0                 1           2             2    2     1      -0.1737851278E-02       2    2    1        -0.9066438530E-01      0.1964565754E+00
          0                 2           2             2    2     1       0.1722649258E-03       2    2    1         0.9066437761E-02      0.1940265078E-01
          0                 3           1             2    2     1      -0.1536441625E-04       2    2    1        -0.8159784254E-03      0.1742111356E-02

    ------------------------------------------------
       NWT REQUIRED            3 OUTER ITERATIONS 
       AND A TOTAL OF          5 INNER ITERATIONS.
    ------------------------------------------------

 NO OUTPUT CONTROL FOR STRESS PERIOD   25   TIME STEP   29
 
 SOLVING FOR HEAD 
                                                   Max.-Head-Change                         Max.-Flux-Residual
  Residual-Control   Outer-Iter.   Inner-Iter.     Column Row Layer    Maximum-Head-Change  Column Row Layer    Maximum-Flux-Residual          L2-NORM 
          0                 1           2             2    2     1      -0.1729619847E-02       2    2    1        -0.9023198204E-01      0.1951386134E+00
          0                 2           2             2    2     1       0.1714488265E-03       2    2    1         0.9023197471E-02      0.1927333336E-01
          0                 3           1             2    2     1      -0.1529162226E-04       2    2    1        -0.8120868066E-03      0.1730368888E-02

    ------------------------------------------------
       NWT REQUIRED            3 OUTER ITERATIONS 
       AND A TOTAL OF          5 INNER ITERATIONS.
    ------------------------------------------------

 NO OUTPUT CONTROL FOR STRESS PERIOD   25   TIME STEP   30



 STREAM LISTING     PERIOD     25   STEP       30

 LAYER ROW COL. STREAM  RCH.  FLOW INTO     FLOW TO   FLOW OUT OF   OVRLND.     DIRECT     STREAM       STREAM     STREAM     STREAM   STREAMBED  STREAMBED
                SEG.NO.  NO.  STRM. RCH.    AQUIFER    STRM. RCH.    RUNOFF     PRECIP       ET          HEAD       DEPTH      WIDTH   CONDCTNC.   GRADIENT

   1    1    1     1     1    3.5000E+00  8.3255E-02   3.4167E+00  0.000E+00  0.000E+00  0.000E+00  1.09371E+03  6.654E-01  5.047E+00  2.271E-02  1.222E+00
   1    2    2     1     2    3.4167E+00  1.2792E-01   3.2888E+00  0.000E+00  0.000E+00  0.000E+00  1.08872E+03  6.583E-01  4.995E+00  3.497E-02  1.219E+00
   1    3    3     1     3    3.2888E+00  1.0809E-01   3.1807E+00  0.000E+00  0.000E+00  0.000E+00  1.08307E+03  6.502E-01  4.935E+00  2.961E-02  1.217E+00
   1    3    4     1     4    3.1807E+00  9.8702E-02   3.0820E+00  0.000E+00  0.000E+00  0.000E+00  1.07805E+03  6.428E-01  4.882E+00  2.709E-02  1.214E+00
   1    4    5     2     1    1.0820E+00  2.4731E-01   8.3473E-01  0.000E+00  0.000E+00  0.000E+00  1.07210E+03  1.706E-01  1.200E+01  7.800E-02  1.057E+00
   1    5    6     2     2    8.3473E-01  1.8877E-01   6.4596E-01  0.000E+00  0.000E+00  0.000E+00  1.06666E+03  1.462E-01  1.200E+01  6.000E-02  1.049E+00
   1    6    6     2     3    6.4596E-01  1.8736E-01   4.5860E-01  0.000E+00  0.000E+00  0.000E+00  1.06192E+03  1.226E-01  1.200E+01  6.000E-02  1.041E+00
   1    7    6     2     4    4.5860E-01  1.8574E-01   2.7286E-01  0.000E+00  0.000E+00  0.000E+00  1.05717E+03  9.573E-02  1.200E+01  6.000E-02  1.032E+00
   1    8    6     2     5    2.7286E-01  1.8377E-01   8.9092E-02  0.000E+00  0.000E+00  0.000E+00  1.05242E+03  6.276E-02  1.200E+01  6.000E-02  1.021E+00
   1    3    5     3     1    2.0000E+00  2.8252E-01   1.7175E+00  0.000E+00  0.000E+00  0.000E+00  1.07555E+03  1.909E+00  9.636E+00  7.227E-02  1.955E+00
   1    3    6     3     2    1.7175E+00  2.4905E-01   1.4684E+00  0.000E+00  0.000E+00  0.000E+00  1.07264E+03  1.727E+00  8.909E+00  6.682E-02  1.864E+00
   1    3    7     3     3    1.4684E+00  1.9718E-01   1.2712E+00  0.000E+00  0.000E+00  0.000E+00  1.06987E+03  1.555E+00  8.218E+00  5.547E-02  1.777E+00
   1    4    8     3     4    1.2712E+00  2.2567E-01   1.0456E+00  0.000E+00  0.000E+00  0.000E+00  1.06682E+03  1.364E+00  7.455E+00  6.709E-02  1.682E+00
   1    5    8     3     5    1.0456E+00  1.5790E-01   8.8768E-01  0.000E+00  0.000E+00  0.000E+00  1.06362E+03  1.164E+00  6.655E+00  4.991E-02  1.582E+00
   1    6    8     3     6    8.8768E-01  5.5980E-02   8.3170E-01  0.000E+00  0.000E+00  0.000E+00  1.06158E+03  1.036E+00  6.145E+00  1.844E-02  1.518E+00
   1    5   10     4     1    1.0000E+01  9.0919E-02   9.9091E+00  0.000E+00  0.000E+00  0.000E+00  1.07836E+03  6.368E-01  1.000E+01  2.500E-02  1.212E+00
   1    5    9     4     2    9.9091E+00  1.8158E-01   9.7275E+00  0.000E+00  0.000E+00  0.000E+00  1.07154E+03  6.315E-01  1.000E+01  5.000E-02  1.211E+00
   1    6    8     4     3    9.7275E+00  1.2689E-01   9.6006E+00  0.000E+00  0.000E+00  0.000E+00  1.06381E+03  6.256E-01  1.000E+01  3.500E-02  1.209E+00
   1    6    8     5     1    1.0432E+01  2.2686E-01   1.0205E+01  0.000E+00  0.000E+00  0.000E+00  1.05868E+03  6.790E-01  1.542E+01  6.166E-02  1.226E+00
   1    7    7     5     2    1.0205E+01  2.7894E-01   9.9265E+00  0.000E+00  0.000E+00  0.000E+00  1.05417E+03  6.732E-01  1.519E+01  7.594E-02  1.224E+00
   1    8    7     5     3    9.9265E+00  1.9221E-01   9.7343E+00  0.000E+00  0.000E+00  0.000E+00  1.04992E+03  6.676E-01  1.497E+01  5.241E-02  1.223E+00
   1    8    6     5     4    9.7343E+00  1.3577E-01   9.5985E+00  0.000E+00  0.000E+00  0.000E+00  1.04691E+03  6.637E-01  1.482E+01  3.706E-02  1.221E+00
   1    9    6     6     1    9.6876E+00  2.2120E-01   9.4664E+00  0.000E+00  0.000E+00  0.000E+00  1.04341E+03  6.866E-01  1.200E+01  6.000E-02  1.229E+00
   1   10    7     6     2    9.4664E+00  2.2062E-01   9.2458E+00  0.000E+00  0.000E+00  0.000E+00  1.03886E+03  6.771E-01  1.200E+01  6.000E-02  1.226E+00
   1   11    7     6     3    9.2458E+00  2.2005E-01   9.0258E+00  0.000E+00  0.000E+00  0.000E+00  1.03430E+03  6.674E-01  1.200E+01  6.000E-02  1.222E+00
   1   12    7     6     4    9.0258E+00  2.1947E-01   8.8063E+00  0.000E+00  0.000E+00  0.000E+00  1.02975E+03  6.578E-01  1.200E+01  6.000E-02  1.219E+00
   1   13    7     6     5    8.8063E+00 -1.0635E-01   8.9126E+00  0.000E+00  0.000E+00  0.000E+00  1.02656E+03  6.553E-01  1.200E+01  2.400E-01 -1.477E-01
   1   14    9     7     1    1.5000E+02  1.3413E+00   1.4866E+02  0.000E+00  0.000E+00  0.000E+00  1.03987E+03  2.288E+00  5.529E+01  5.593E-01  7.994E-01
   1   13    8     7     2    1.4866E+02  1.8494E+00   1.4681E+02  0.000E+00  0.000E+00  0.000E+00  1.03478E+03  2.279E+00  5.526E+01  6.148E-01  1.003E+00
   1   13    7     7     3    1.4681E+02  1.4978E+00   1.4531E+02  0.000E+00  0.000E+00  0.000E+00  1.02969E+03  2.270E+00  5.522E+01  5.584E-01  8.940E-01
   1   13    6     8     1    1.5422E+02  8.5909E-01   1.5337E+02  0.000E+00  0.000E+00  0.000E+00  1.02472E+03  2.843E+00  4.123E+01  4.201E-01  6.816E-01
   1   13    5     8     2    1.5337E+02  1.3045E-01   1.5323E+02  0.000E+00  0.000E+00  0.000E+00  1.01846E+03  2.840E+00  4.118E+01  4.196E-01  1.036E-01
   1   13    4     8     3    1.5323E+02 -2.5912E+00   1.5583E+02  0.000E+00  0.000E+00  0.000E+00  1.01222E+03  2.848E+00  4.130E+01  4.209E+00 -2.052E-01
   1   13    3     8     4    1.5583E+02 -3.7049E+00   1.5953E+02  0.000E+00  0.000E+00  0.000E+00  1.00600E+03  2.870E+00  4.162E+01  4.241E+00 -2.912E-01
   1   13    2     8     5    1.5953E+02 -2.5859E+00   1.6212E+02  0.000E+00  0.000E+00  0.000E+00  9.99766E+02  2.891E+00  4.193E+01  4.272E+00 -2.018E-01
   1   13    1     8     6    1.6212E+02 -1.9687E+00   1.6409E+02  0.000E+00  0.000E+00  0.000E+00  9.94782E+02  2.907E+00  4.215E+01  2.577E+00 -2.547E-01
   1    6    8     9     1    0.0000E+00  0.0000E+00   0.0000E+00  0.000E+00  0.000E+00  0.000E+00  1.07850E+03  0.000E+00  4.000E+00  0.000E+00  1.000E+00





UNSATURATED ZONE PACKAGE VOLUMETRIC BUDGET FOR  TIME STEP    30 STRESS PERIOD   25
  ------------------------------------------------------------------------------



     CUMULATIVE VOLUMES      L**3       RATES FOR THIS TIME STEP      L**3/T
     ------------------                 ------------------------

           IN:                                      IN:
           ---                                      ---
        INFILTRATION =   102392681.9333          INFILTRATION =       0.0000E+00

          OUT:                                     OUT:
          ----                                     ----
              UZF ET =    86358434.8076                UZF ET =           0.0116
        UZF RECHARGE =     3097390.9160          UZF RECHARGE =           0.0035

            IN - OUT =    12936856.2098              IN - OUT =          -0.0151

          STORAGE:                                 STORAGE:
          --------                                 --------
      STORAGE CHANGE =    12968301.2567        STORAGE CHANGE =          -0.0151

 PERCENT DISCREPANCY IS DIFFERENCE BETWEEN IN-OUT MINUS CHANGE IN STORAGE
 DIVIDED BY THE AVERAGE OF IN AND OUT TIMES 100

 PERCENT DISCREPANCY =          -0.01     PERCENT DISCREPANCY =          -0.08






1
  VOLUMETRIC BUDGET FOR ENTIRE MODEL AT END OF TIME STEP   30, STRESS PERIOD  25
  ------------------------------------------------------------------------------

     CUMULATIVE VOLUMES      L**3       RATES FOR THIS TIME STEP      L**3/T
     ------------------                 ------------------------

           IN:                                      IN:
           ---                                      ---
    AWU WELLS            =    15987972.0000      AWU WELLS            =           0.0000
    DIVERSION SEGMENTS   =    86331504.0000      DIVERSION SEGMENTS   =           0.0000
    GW IRRIGATION        =           0.0000      GW IRRIGATION        =           0.0000
    SW IRRIGATION        =           0.0000      SW IRRIGATION        =           0.0000
    EFFICIENCY FACTOR GW =           0.0000      EFFICIENCY FACTOR GW =           0.0000
    EFFICIENCY FACTOR SW =           0.0000      EFFICIENCY FACTOR SW =           0.0000

                TOTAL IN =   102319472.0000                  TOTAL IN =           0.0000

          OUT:                                     OUT:
          ----                                     ----
    AWU WELLS            =           0.0000      AWU WELLS            =           0.0000
    DIVERSION SEGMENTS   =           0.0000      DIVERSION SEGMENTS   =           0.0000
    GW IRRIGATION        =    15987972.0000      GW IRRIGATION        =           0.0000
    SW IRRIGATION        =    86331504.0000      SW IRRIGATION        =           0.0000
    EFFICIENCY FACTOR GW =           0.0000      EFFICIENCY FACTOR GW =           0.0000
    EFFICIENCY FACTOR SW =           0.0000      EFFICIENCY FACTOR SW =           0.0000

               TOTAL OUT =   102319472.0000                 TOTAL OUT =           0.0000

                IN - OUT =           0.0000                  IN - OUT =           0.0000

     PERCENT DISCREPANCY =           0.00         PERCENT DISCREPANCY =           0.00



1
  VOLUMETRIC BUDGET FOR ENTIRE MODEL AT END OF TIME STEP   30, STRESS PERIOD  25
  ------------------------------------------------------------------------------

     CUMULATIVE VOLUMES      L**3       RATES FOR THIS TIME STEP      L**3/T
     ------------------                 ------------------------

           IN:                                      IN:
           ---                                      ---
             STORAGE     =   109442248.0000               STORAGE     =           0.9314
       CONSTANT HEAD     =           0.0000         CONSTANT HEAD     =           0.0000
     HEAD DEP BOUNDS     =    18059970.0000       HEAD DEP BOUNDS     =           0.2861
      STREAM LEAKAGE     =   735516416.0000        STREAM LEAKAGE     =          10.3717
        UZF RECHARGE     =     3097393.5000          UZF RECHARGE     =       3.4875E-03
               GW ET     =           0.0000                 GW ET     =           0.0000
     SURFACE LEAKAGE     =           0.0000       SURFACE LEAKAGE     =           0.0000
    AWU WELLS            =           0.0000      AWU WELLS            =           0.0000

                TOTAL IN =   866116032.0000                  TOTAL IN =          11.5927

          OUT:                                     OUT:
          ----                                     ----
             STORAGE     =   113390320.0000               STORAGE     =           0.3385
       CONSTANT HEAD     =           0.0000         CONSTANT HEAD     =           0.0000
     HEAD DEP BOUNDS     =    18082602.0000       HEAD DEP BOUNDS     =           0.2867
      STREAM LEAKAGE     =   609553216.0000        STREAM LEAKAGE     =          10.9571
        UZF RECHARGE     =           0.0000          UZF RECHARGE     =           0.0000
               GW ET     =   109102448.0000                 GW ET     =       9.9801E-03
     SURFACE LEAKAGE     =           0.0000       SURFACE LEAKAGE     =           0.0000
    AWU WELLS            =    15987972.0000      AWU WELLS            =           0.0000

               TOTAL OUT =   866116544.0000                 TOTAL OUT =          11.5922

                IN - OUT =        -512.0000                  IN - OUT =       4.6825E-04

     PERCENT DISCREPANCY =          -0.00         PERCENT DISCREPANCY =           0.00






         TIME SUMMARY AT END OF TIME STEP   30 IN STRESS PERIOD   25
                    SECONDS     MINUTES      HOURS       DAYS        YEARS
                    -----------------------------------------------------------
   TIME STEP LENGTH  87600.      1460.0      24.333      1.0139     2.77588E-03
 STRESS PERIOD TIME 2.62800E+06  43800.      730.00      30.417     8.32763E-02
         TOTAL TIME 6.31584E+07 1.05264E+06  17544.      731.00      2.0014    
1

 Run end date and time (yyyy/mm/dd hh:mm:ss): 2018/03/20 11:35:34
 Elapsed run time:  4.067 Seconds

