                                  MODFLOW-NWT-SWR1 
      U.S. GEOLOGICAL SURVEY MODULAR FINITE-DIFFERENCE GROUNDWATER-FLOW MODEL
                             VERSION 1.1.4 4/01/2018
                    BASED ON MODFLOW-2005 VERSION 1.12.00 02/03/2017

 LIST FILE: Agwater1.lst
                         UNIT    9

 OPENING Agwater1.ba6
 FILE TYPE:BAS6   UNIT   75   STATUS:OLD    
 FORMAT:FORMATTED              ACCESS:SEQUENTIAL          

 OPENING Agwater1.upw
 FILE TYPE:UPW   UNIT    7   STATUS:OLD    
 FORMAT:FORMATTED              ACCESS:SEQUENTIAL          

 OPENING Agwater1.dis
 FILE TYPE:DIS   UNIT    8   STATUS:OLD    
 FORMAT:FORMATTED              ACCESS:SEQUENTIAL          

 OPENING Agwater1.nwt
 FILE TYPE:NWT   UNIT   13   STATUS:OLD    
 FORMAT:FORMATTED              ACCESS:SEQUENTIAL          

 OPENING Agwater1.oc
 FILE TYPE:OC   UNIT   14   STATUS:OLD    
 FORMAT:FORMATTED              ACCESS:SEQUENTIAL          

 OPENING Agwater1.sfr
 FILE TYPE:SFR   UNIT   15   STATUS:OLD    
 FORMAT:FORMATTED              ACCESS:SEQUENTIAL          

 OPENING Agwater1.ghb
 FILE TYPE:GHB   UNIT   17   STATUS:OLD    
 FORMAT:FORMATTED              ACCESS:SEQUENTIAL          

 OPENING Agwater1.uzf
 FILE TYPE:UZF   UNIT   19   STATUS:OLD    
 FORMAT:FORMATTED              ACCESS:SEQUENTIAL          

 OPENING Agwater1.gag
 FILE TYPE:GAGE   UNIT   32   STATUS:OLD    
 FORMAT:FORMATTED              ACCESS:SEQUENTIAL          

 OPENING seg1.tab
 FILE TYPE:DATA   UNIT   55   STATUS:UNKNOWN
 FORMAT:FORMATTED              ACCESS:SEQUENTIAL          

 OPENING seg9.tab
 FILE TYPE:DATA   UNIT   56   STATUS:UNKNOWN
 FORMAT:FORMATTED              ACCESS:SEQUENTIAL          

 OPENING Agwater1.awu
 FILE TYPE:AWU   UNIT   57   STATUS:OLD    
 FORMAT:FORMATTED              ACCESS:SEQUENTIAL          

 OPENING Agwater1.hed
 FILE TYPE:DATA   UNIT   62   STATUS:UNKNOWN
 FORMAT:FORMATTED              ACCESS:SEQUENTIAL          

 OPENING Agwater1gw.ts5
 FILE TYPE:DATA   UNIT  105   STATUS:UNKNOWN
 FORMAT:FORMATTED              ACCESS:SEQUENTIAL          

 OPENING Agwater1SW.ts9
 FILE TYPE:DATA   UNIT  107   STATUS:UNKNOWN
 FORMAT:FORMATTED              ACCESS:SEQUENTIAL          

 OPENING Agwater1SW_ET.ts9
 FILE TYPE:DATA   UNIT  108   STATUS:UNKNOWN
 FORMAT:FORMATTED              ACCESS:SEQUENTIAL          

 OPENING Agwater1.uzfot
 FILE TYPE:DATA(BINARY)   UNIT   61   STATUS:UNKNOWN
 FORMAT:BINARY                 ACCESS:SEQUENTIAL          

 OPENING Agwater1cbc.unf
 FILE TYPE:DATA(BINARY)   UNIT  102   STATUS:UNKNOWN
 FORMAT:BINARY                 ACCESS:SEQUENTIAL          

 OPENING welllist.unf
 FILE TYPE:DATA(BINARY)   UNIT  103   STATUS:UNKNOWN
 FORMAT:BINARY                 ACCESS:SEQUENTIAL          

 OPENING wellirrlist.unf
 FILE TYPE:DATA(BINARY)   UNIT  104   STATUS:UNKNOWN
 FORMAT:BINARY                 ACCESS:SEQUENTIAL          

 OPENING Agwater1.uzf1
 FILE TYPE:DATA   UNIT   65   STATUS:UNKNOWN
 FORMAT:FORMATTED              ACCESS:SEQUENTIAL          

 OPENING Agwater1.uzf2
 FILE TYPE:DATA   UNIT   66   STATUS:UNKNOWN
 FORMAT:FORMATTED              ACCESS:SEQUENTIAL          

 OPENING Agwater1.uzf3
 FILE TYPE:DATA   UNIT   67   STATUS:UNKNOWN
 FORMAT:FORMATTED              ACCESS:SEQUENTIAL          

 OPENING Agwater1.uzf4
 FILE TYPE:DATA   UNIT   68   STATUS:UNKNOWN
 FORMAT:FORMATTED              ACCESS:SEQUENTIAL          

 OPENING Agwater1.flw
 FILE TYPE:DATA   UNIT   81   STATUS:UNKNOWN
 FORMAT:FORMATTED              ACCESS:SEQUENTIAL          

 OPENING Agwater1.sg1
 FILE TYPE:DATA   UNIT   83   STATUS:UNKNOWN
 FORMAT:FORMATTED              ACCESS:SEQUENTIAL          

 OPENING Agwater1.sg2
 FILE TYPE:DATA   UNIT   84   STATUS:UNKNOWN
 FORMAT:FORMATTED              ACCESS:SEQUENTIAL          

 OPENING Agwater1.sg3
 FILE TYPE:DATA   UNIT   85   STATUS:UNKNOWN
 FORMAT:FORMATTED              ACCESS:SEQUENTIAL          

 OPENING Agwater1.sg4
 FILE TYPE:DATA   UNIT   86   STATUS:UNKNOWN
 FORMAT:FORMATTED              ACCESS:SEQUENTIAL          

 OPENING Agwater1.sg5
 FILE TYPE:DATA   UNIT   87   STATUS:UNKNOWN
 FORMAT:FORMATTED              ACCESS:SEQUENTIAL          

 OPENING Agwater1.sg6
 FILE TYPE:DATA   UNIT   88   STATUS:UNKNOWN
 FORMAT:FORMATTED              ACCESS:SEQUENTIAL          

 OPENING Agwater1.sg7
 FILE TYPE:DATA   UNIT   89   STATUS:UNKNOWN
 FORMAT:FORMATTED              ACCESS:SEQUENTIAL          

 OPENING Agwater1.sg8
 FILE TYPE:DATA   UNIT   90   STATUS:UNKNOWN
 FORMAT:FORMATTED              ACCESS:SEQUENTIAL          

 OPENING Agwater1.sg9
 FILE TYPE:DATA   UNIT   91   STATUS:UNKNOWN
 FORMAT:FORMATTED              ACCESS:SEQUENTIAL          

 BAS -- BASIC PACKAGE, VERSION 1.1.4, 4/01/2018 INPUT READ FROM UNIT   75
 
 MODFLOW was compiled using mixed precision
 Precision of REAL variables:           6
 Precision of DOUBLE PRECISION variables:          15

 DISCRETIZATION INPUT DATA READ FROM UNIT    8
 #Test problem 2-- Discretization input
 #Example problem using the UZF1 Package
    1 LAYERS        15 ROWS        10 COLUMNS
   25 STRESS PERIOD(S) IN SIMULATION
 MODEL TIME UNIT IS SECONDS
 MODEL LENGTH UNIT IS FEET
  Confining bed flag for each layer:
   0

                     DELR =   5000.00    

                     DELC =   5000.00    



           TOP ELEVATION OF LAYER 1
 READING ON UNIT    8 WITH FORMAT: (10F7.0)            

            1           2           3           4           5           6           7           8           9          10
 ........................................................................................................................
   1    1105.       1105.       0.000       0.000       0.000       0.000       0.000       0.000       0.000       0.000    
   2    1105.       1095.       1105.       0.000       0.000       1100.       1100.       1110.       0.000       0.000    
   3    0.000       1100.       1085.       1080.       1078.       1076.       1073.       1090.       0.000       0.000    
   4    1110.       1100.       1090.       1085.       1076.       1080.       1080.       1070.       1100.       0.000    
   5    1110.       1100.       1085.       1080.       1078.       1074.       1077.       1066.       1075.       1080.    
   6    1105.       1095.       1080.       1077.       1073.       1069.       1070.       1063.       1085.       1095.    
   7    1105.       1090.       1075.       1072.       1070.       1065.       1065.       1069.       1090.       0.000    
   8    0.000       1080.       1070.       1068.       1063.       1060.       1063.       1067.       1090.       0.000    
   9    0.000       1075.       1065.       1062.       1058.       1052.       1055.       1065.       1090.       0.000    
  10    0.000       1070.       1060.       1055.       1046.       1046.       1044.       1060.       1088.       1100.    
  11    0.000       1055.       1050.       1045.       1041.       1042.       1040.       1050.       1075.       0.000    
  12    1027.       1028.       1028.       1032.       1032.       1033.       1032.       1040.       1060.       0.000    
  13    997.0       1004.       1008.       1014.       1020.       1027.       1032.       1038.       1050.       0.000    
  14    0.000       1030.       1040.       1045.       1050.       1050.       1050.       1050.       1044.       0.000    
  15    0.000       0.000       1080.       1080.       1080.       1080.       0.000       0.000       0.000       0.000    



             MODEL LAYER BOTTOM EL. FOR LAYER   1
 READING ON UNIT    8 WITH FORMAT: (10F7.0)            

            1           2           3           4           5           6           7           8           9          10
 ........................................................................................................................
   1    1000.       1000.       0.000       0.000       0.000       0.000       0.000       0.000       0.000       0.000    
   2    1000.       900.0       900.0       0.000       0.000       950.0       950.0       950.0       0.000       0.000    
   3    0.000       850.0       670.0       680.0       680.0       770.0       770.0       890.0       0.000       0.000    
   4    925.0       850.0       650.0       650.0       650.0       680.0       740.0       850.0       950.0       0.000    
   5    925.0       800.0       650.0       600.0       600.0       600.0       650.0       720.0       850.0       950.0    
   6    925.0       800.0       650.0       600.0       550.0       600.0       650.0       720.0       850.0       970.0    
   7    925.0       800.0       650.0       600.0       550.0       600.0       650.0       720.0       950.0       0.000    
   8    0.000       850.0       700.0       650.0       570.0       600.0       700.0       850.0       950.0       0.000    
   9    0.000       850.0       700.0       650.0       540.0       580.0       700.0       850.0       950.0       0.000    
  10    0.000       850.0       700.0       630.0       530.0       580.0       650.0       800.0       900.0       950.0    
  11    0.000       850.0       700.0       620.0       580.0       620.0       700.0       800.0       900.0       0.000    
  12    900.0       830.0       710.0       640.0       600.0       650.0       700.0       800.0       900.0       0.000    
  13    900.0       810.0       750.0       700.0       650.0       700.0       750.0       800.0       900.0       0.000    
  14    0.000       950.0       850.0       850.0       850.0       850.0       850.0       850.0       850.0       0.000    
  15    0.000       0.000       950.0       950.0       950.0       950.0       0.000       0.000       0.000       0.000    


 STRESS PERIOD     LENGTH       TIME STEPS     MULTIPLIER FOR DELT    SS FLAG
 ----------------------------------------------------------------------------
        1         86400.00          1                    1.000         SS
        2         2628000.         30                    1.000         TR
        3         2628000.         30                    1.000         TR
        4         2628000.         30                    1.000         TR
        5         2628000.         30                    1.000         TR
        6         2628000.         30                    1.000         TR
        7         2628000.         30                    1.000         TR
        8         2628000.         30                    1.000         TR
        9         2628000.         30                    1.000         TR
       10         2628000.         30                    1.000         TR
       11         2628000.         30                    1.000         TR
       12         2628000.         30                    1.000         TR
       13         2628000.         30                    1.000         TR
       14         2628000.         30                    1.000         TR
       15         2628000.         30                    1.000         TR
       16         2628000.         30                    1.000         TR
       17         2628000.         30                    1.000         TR
       18         2628000.         30                    1.000         TR
       19         2628000.         30                    1.000         TR
       20         2628000.         30                    1.000         TR
       21         2628000.         30                    1.000         TR
       22         2628000.         30                    1.000         TR
       23         2628000.         30                    1.000         TR
       24         2628000.         30                    1.000         TR
       25         2628000.         30                    1.000         TR

 COMBINED STEADY-STATE AND TRANSIENT SIMULATION



 
 #Test Simulation 2-- Example problem using the UZF1 Package                     
 #Modified from example Problem 1 of SFR1 documentation report                   
 THE FREE FORMAT OPTION HAS BEEN SELECTED



                     BOUNDARY ARRAY FOR LAYER   1
 READING ON UNIT   75 WITH FORMAT: (20I4)              

                1           2           3           4           5           6           7           8           9          10
 ............................................................................................................................
   1            1           1           0           0           0           0           0           0           0           0
   2            1           1           1           0           0           1           1           1           0           0
   3            0           1           1           1           1           1           1           1           0           0
   4            1           1           1           1           1           1           1           1           1           0
   5            1           1           1           1           1           1           1           1           1           1
   6            1           1           1           1           1           1           1           1           1           1
   7            1           1           1           1           1           1           1           1           1           0
   8            0           1           1           1           1           1           1           1           1           0
   9            0           1           1           1           1           1           1           1           1           0
  10            0           1           1           1           1           1           1           1           1           1
  11            0           1           1           1           1           1           1           1           1           0
  12            1           1           1           1           1           1           1           1           1           0
  13            1           1           1           1           1           1           1           1           1           0
  14            0           1           1           1           1           1           1           1           1           0
  15            0           0           1           1           1           1           0           0           0           0

 AQUIFER HEAD WILL BE SET TO   6999.0     AT ALL NO-FLOW NODES (IBOUND=0).



                       INITIAL HEAD FOR LAYER   1
 READING ON UNIT   75 WITH FORMAT: (10F8.0)            

            1           2           3           4           5           6           7           8           9          10
 ........................................................................................................................
   1    1093.       1089.       6999.       6999.       6999.       6999.       6999.       6999.       6999.       6999.    
   2    1090.       1087.       1081.       6999.       6999.       1072.       1071.       1071.       6999.       6999.    
   3    6999.       1079.       1078.       1074.       1072.       1071.       1069.       1068.       6999.       6999.    
   4    1069.       1071.       1070.       1067.       1065.       1064.       1064.       1066.       1066.       6999.    
   5    1065.       1064.       1063.       1062.       1061.       1061.       1060.       1062.       1066.       1068.    
   6    1060.       1058.       1057.       1056.       1056.       1057.       1057.       1059.       1062.       1066.    
   7    1056.       1053.       1052.       1051.       1051.       1052.       1053.       1055.       1056.       6999.    
   8    6999.       1046.       1046.       1046.       1046.       1046.       1048.       1050.       1050.       6999.    
   9    6999.       1039.       1039.       1039.       1040.       1041.       1042.       1043.       1044.       6999.    
  10    6999.       1031.       1032.       1033.       1034.       1035.       1037.       1038.       1039.       1042.    
  11    6999.       1021.       1023.       1027.       1029.       1030.       1032.       1034.       1036.       6999.    
  12    1001.       1009.       1015.       1020.       1023.       1026.       1029.       1030.       1034.       6999.    
  13    994.5      1000.0       1007.       1013.       1019.       1024.       1029.       1034.       1036.       6999.    
  14    6999.       1004.       1009.       1014.       1019.       1024.       1029.       1035.       1039.       6999.    
  15    6999.       6999.       1012.       1015.       1019.       1022.       6999.       6999.       6999.       6999.    

 OUTPUT CONTROL IS SPECIFIED ONLY AT TIME STEPS FOR WHICH OUTPUT IS DESIRED
 HEADS WILL BE SAVED WITH FORMAT: (10F10.3)           
 SAVED HEADS WILL BE LABELED
 COMPACT CELL-BY-CELL BUDGET FILES WILL BE WRITTEN
 HEAD PRINT FORMAT CODE IS   4    DRAWDOWN PRINT FORMAT CODE IS   0
 HEADS WILL BE SAVED ON UNIT   62    DRAWDOWNS WILL BE SAVED ON UNIT    0
 # NWT Input File
 # Test Problem 3 for MODFLOW-NWT
 #HEADTOL  FLUXTOL MAXITEROUT THICKFACT LINMETH IPRNWT IBOTAV OPTIONS DBDREDUCE DBDINCREASE DBDGAMMA MOMFACT BACKFLAG MAXBACKITER BACKTOL BACKREDUCE

 NWT1 -- Newton Solver, VERSION 1.1.4, 4/01/2018
         INPUT READ FROM UNIT 13

 SPECIFIED OPTION:
 SOLVER INPUT VALUES ARE SPECIFIED BY USER
 ***XMD linear solver will be used***
 
   CONVERGENCE CRITERION OF   0.100000E-03 FOR HEAD SOLUTION
   AND A TOLERANCE OF   0.100000E+03 FOR FLOW SOLUTION AND 
   A MAXIMUM OF   500 OUTER ITERATIONS. 


   D-B-D REDUCTION FACTOR OF    0.970000E+00 AND 
   A D-B-D INCREASE FACTOR OF    0.100000E-04 AND 
   A D-B-D RELAXATION OF    0.000000E+00 AND 
   A MOMENTUM FACTOR OF    0.100000E+00 .


 ***BACKTRACKING IS INACTIVE***
 XMD -- LINEAR SOLUTION BY XMD PACKAGE VERSION 1.30
     BY MOTOMU IBARAKI, OHIO STATE UNIVERSITY, COLOMBUS, OH
                 INPUT READ FROM UNIT 13
 ACCELERATION METHOD                    (IACL) =         1
 NODE ORDERING FLAG                   (NORDER) =         0
 LEVEL OF FILL                         (LEVEL) =         7
 MAXIMUM NUMBER OF ORTHOGONALIZATIONS  (NORTH) =         7
 INDEX FOR USING REDUCED SYSTEM      (IREDSYS) =         1
 RESID. REDUCTION CONVERGE CRITERION  (RRCTOL) =  0.000000E+00
 INDEX FOR USING DROP TOLERANCE     (IDROPTOL) =         1
 DROP TOLERANCE VALUE                  (EPSRN) =  0.500000E-02
 CONVERGENCE CRITERIA OF           (HCLOSEXMD) =  0.100000E-03
 MAX. NUMBER OF LINEAR ITERATIONS  (MXITERXMD) =        50


 UPW1 -- UPSTREAM WEIGHTING FLOW PACKAGE, VERSION 1.1.4, 4/01/2018
         INPUT READ FROM UNIT  7

 #Layer-Property Flow Package input for test simulation 2
 CELL-BY-CELL FLOWS WILL BE SAVED ON UNIT  102
 No named parameters

   LAYER FLAGS:
 LAYER       LAYTYP          LAYAVG    CHANI           LAYVKA           LAYWET
 ---------------------------------------------------------------------------
    1             1             0     1.000E+00             0             0

   INTERPRETATION OF LAYER FLAGS:
                        INTERBLOCK     HORIZONTAL    DATA IN
         LAYER TYPE   TRANSMISSIVITY   ANISOTROPY   ARRAY VKA   WETTABILITY
 LAYER   (LAYTYP)        (LAYAVG)      (CHANI)     (LAYVKA)       (LAYWET)
 ---------------------------------------------------------------------------
    1   CONVERTIBLE      HARMONIC     1.000E+00    VERTICAL K  NON-WETTABLE



              HYD. COND. ALONG ROWS FOR LAYER   1
 READING ON UNIT    7 WITH FORMAT: (10F5.0)            

            1           2           3           4           5           6           7           8           9          10
 ........................................................................................................................
   1   2.0000E-03  2.0000E-03   0.000       0.000       0.000       0.000       0.000       0.000       0.000       0.000    
   2   4.0000E-04  2.0000E-03  2.0000E-03   0.000       0.000      4.0000E-04  4.0000E-04  4.0000E-04   0.000       0.000    
   3    0.000      4.0000E-04  2.0000E-03  2.0000E-03  4.0000E-04  4.0000E-04  4.0000E-04  4.0000E-04   0.000       0.000    
   4   4.0000E-04  4.0000E-04  4.0000E-04  2.0000E-03  2.0000E-03  2.0000E-03  4.0000E-04  4.0000E-04  4.0000E-04   0.000    
   5   4.0000E-04  4.0000E-04  4.0000E-04  2.0000E-03  2.0000E-03  2.0000E-03  2.0000E-03  2.0000E-03  2.0000E-03  2.0000E-03
   6   4.0000E-04  4.0000E-04  4.0000E-04  2.0000E-03  2.0000E-03  2.0000E-03  2.0000E-03  2.0000E-03  4.0000E-04  4.0000E-04
   7   4.0000E-04  4.0000E-04  4.0000E-04  2.0000E-03  2.0000E-03  2.0000E-03  2.0000E-03  2.0000E-03  4.0000E-04   0.000    
   8    0.000      4.0000E-04  4.0000E-04  2.0000E-03  2.0000E-03  2.0000E-03  2.0000E-03  4.0000E-04  4.0000E-04   0.000    
   9    0.000      4.0000E-04  4.0000E-04  2.0000E-03  2.0000E-03  2.0000E-03  2.0000E-03  4.0000E-04  4.0000E-04   0.000    
  10    0.000      4.0000E-04  4.0000E-04  2.0000E-03  2.0000E-03  2.0000E-03  2.0000E-03  4.0000E-04  4.0000E-04  4.0000E-04
  11    0.000      4.0000E-04  4.0000E-04  2.0000E-03  2.0000E-03  2.0000E-03  2.0000E-03  4.0000E-04  4.0000E-04   0.000    
  12   4.0000E-04  4.0000E-04  2.0000E-03  2.0000E-03  2.0000E-03  2.0000E-03  2.0000E-03  4.0000E-04  4.0000E-04   0.000    
  13   2.0000E-03  2.0000E-03  2.0000E-03  2.0000E-03  2.0000E-03  2.0000E-03  2.0000E-03  2.0000E-03  2.0000E-03   0.000    
  14    0.000      4.0000E-04  4.0000E-04  4.0000E-04  4.0000E-04  4.0000E-04  4.0000E-04  4.0000E-04  2.0000E-03   0.000    
  15    0.000       0.000      4.0000E-04  4.0000E-04  4.0000E-04  4.0000E-04   0.000       0.000       0.000       0.000    

      VERTICAL HYD. COND. =  1.000000E-06 FOR LAYER   1

         SPECIFIC STORAGE =  1.000000E-06 FOR LAYER   1



                     SPECIFIC YIELD FOR LAYER   1
 READING ON UNIT    7 WITH FORMAT: (10F5.0)            

            1           2           3           4           5           6           7           8           9          10
 ........................................................................................................................
   1   0.2000      0.2000       0.000       0.000       0.000       0.000       0.000       0.000       0.000       0.000    
   2   0.1000      0.2000      0.2000       0.000       0.000      0.1000      0.1000      0.1000       0.000       0.000    
   3    0.000      0.1000      0.2000      0.2000      0.1000      0.1000      0.1000      0.1000       0.000       0.000    
   4   0.1000      0.1000      0.1000      0.2000      0.2000      0.2000      0.1000      0.1000      0.1000       0.000    
   5   0.1000      0.1000      0.1000      0.2000      0.2000      0.2000      0.2000      0.2000      0.2000      0.2000    
   6   0.1000      0.1000      0.1000      0.2000      0.2000      0.2000      0.2000      0.2000      0.1000      0.1000    
   7   0.1000      0.1000      0.1000      0.2000      0.2000      0.2000      0.2000      0.2000      0.1000       0.000    
   8    0.000      0.1000      0.1000      0.2000      0.2000      0.2000      0.2000      0.1000      0.1000       0.000    
   9    0.000      0.1000      0.1000      0.2000      0.2000      0.2000      0.2000      0.1000      0.1000       0.000    
  10    0.000      0.1000      0.1000      0.2000      0.2000      0.2000      0.2000      0.1000      0.1000      0.1000    
  11    0.000      0.1000      0.1000      0.2000      0.2000      0.2000      0.2000      0.1000      0.1000       0.000    
  12   0.1000      0.1000      0.2000      0.2000      0.2000      0.2000      0.2000      0.1000      0.1000       0.000    
  13   0.2000      0.2000      0.2000      0.2000      0.2000      0.2000      0.2000      0.2000      0.2000       0.000    
  14    0.000      0.1000      0.1000      0.1000      0.1000      0.1000      0.1000      0.1000      0.2000       0.000    
  15    0.000       0.000      0.1000      0.1000      0.1000      0.1000       0.000       0.000       0.000       0.000    

 GHB -- GENERAL-HEAD BOUNDARY PACKAGE, VERSION 7, 5/2/2005
         INPUT READ FROM UNIT   17
 No named parameters
 MAXIMUM OF      2 ACTIVE GHB CELLS AT ONE TIME
 CELL-BY-CELL FLOWS WILL BE PRINTED WHEN ICBCFL NOT 0


     0 GHB parameters

 SFR7 -- STREAMFLOW ROUTING PACKAGE, VERSION 1.0.5, 2012-04-05
         INPUT READ FROM UNIT  15
 #SFR2 Package input for Testing supplimental pumping and irrigation
 No named parameters

 PROCESSING SFR2 OPTIONS
 
          2 Specified inflow files will be read with a maximum of        759 row entries per file
 
Stream loss will be calculated as a factor of the streambed hydraulic conductivity. Multiplication factor is equal to     0.1000000015E+00

 END PROCESSING SFR2 OPTIONS
 


 NUMBER OF STREAM REACHES IS   38

 NUMBER OF STREAM SEGMENTS IS    9

 NUMBER OF STREAM PARAMETERS IS    0

 NUMBER OF STREAM SEGMENTS DEFINED USING PARAMETERS IS              0

 MAXIMUM ERROR FOR STREAM LEAKAGE RATES IS  1.00E-06

 CONSTANT FOR MANNINGS EQUATION IS  1.4860E+00



 STREAM OUTPUT WILL BE WRITTEN TO FILE ON UNIT   81


   STREAM NETWORK DESCRIPTION: 

   LAYER    ROW    COL   SEGMENT   REACH     LENGTH
                          NUMBER   NUMBER    IN CELL        
   --------------------------------------------------
      1      1      1       1        1    4.5000E+03
      1      2      2       1        2    7.0000E+03
      1      3      3       1        3    6.0000E+03
      1      3      4       1        4    5.5500E+03
      1      4      5       2        1    6.5000E+03
      1      5      6       2        2    5.0000E+03
      1      6      6       2        3    5.0000E+03
      1      7      6       2        4    5.0000E+03
      1      8      6       2        5    5.0000E+03
      1      3      5       3        1    5.0000E+03
      1      3      6       3        2    5.0000E+03
      1      3      7       3        3    4.5000E+03
      1      4      8       3        4    6.0000E+03
      1      5      8       3        5    5.0000E+03
      1      6      8       3        6    2.0000E+03
      1      5     10       4        1    2.5000E+03
      1      5      9       4        2    5.0000E+03
      1      6      8       4        3    3.5000E+03
      1      6      8       5        1    4.0000E+03
      1      7      7       5        2    5.0000E+03
      1      8      7       5        3    3.5000E+03
      1      8      6       5        4    2.5000E+03
      1      9      6       6        1    5.0000E+03
      1     10      7       6        2    5.0000E+03
      1     11      7       6        3    5.0000E+03
      1     12      7       6        4    5.0000E+03
      1     13      7       6        5    2.0000E+03
      1     14      9       7        1    5.0000E+03
      1     13      8       7        2    5.5000E+03
      1     13      7       7        3    5.0000E+03
      1     13      6       8        1    5.0000E+03
      1     13      5       8        2    5.0000E+03
      1     13      4       8        3    5.0000E+03
      1     13      3       8        4    5.0000E+03
      1     13      2       8        5    5.0000E+03
      1     13      1       8        6    3.0000E+03
      1      8      6       9        1    3.0000E+03
      1      8      5       9        2    3.0000E+03




 UZF1 -- UNSATURATED FLOW PACKAGE, VERSION 1.4, 02/06/2012
         INPUT READ FROM UNIT 19
 #UZF Package input for test simulation 2
 No named parameters

 PROCESSING UZF OPTIONS
 
 
 INITIAL WATER CONTENT (THTI) WILL BE 
READ FOR THE FIRST SS OR TR STRESS PERIOD
 
 
 RESIDUAL WATER CONTENT (THTR) WILL BE 
READ AND USED FOR THE FIRST TRANSIENT STRESS 
PERIOD
 
 #etsquare    0.1
 
INFILTRATION WILL BE REJECTED USING 
LAND SURFACE K
 
 
HYDRAULIC CONDUCTIVITY OF LAND SURFACE 
WILL BE READ
 

 END PROCESSING UZF OPTIONS



            AREAL EXTENT OF UZ FLOW
 READING ON UNIT   19 WITH FORMAT: (20I4)              

                1           2           3           4           5           6           7           8           9          10
 ............................................................................................................................
   1            1           1           0           0           0           0           0           0           0           0
   2            1           1           1           0           0           1           1           1           0           0
   3            0           1           1           1           1           1           1           1           0           0
   4            1           1           1           1           1           1           1           1           1           0
   5            1           1           1           1           1           1           1           1           1           1
   6            1           1           1           1           1           1           1           1           1           1
   7            1           1           1           1           1           1           1           1           1           0
   8            0           1           1           1           1           1           1           1           1           0
   9            0           1           1           1           1           1           1           1           1           0
  10            0           1           1           1           1           1           1           1           1           1
  11            0           1           1           1           1           1           1           1           1           0
  12            1           1           1           1           1           1           1           1           1           0
  13            1           1           1           1           1           1           1           1           1           0
  14            0           1           1           1           1           1           1           1           1           0
  15            0           0           1           1           1           1           0           0           0           0
 OPTION 1 -- RECHARGE IN UZF TO TOP LAYER ONLY 



            ROUTING OVERLAND RUNOFF
 READING ON UNIT   19 WITH FORMAT: (20I4)              

                1           2           3           4           5           6           7           8           9          10
 ............................................................................................................................
   1            1           1           0           0           0           0           0           0           0           0
   2            1           1           1           0           0           3           3           3           0           0
   3            0           1           1           1           3           3           3           3           0           0
   4            8           8           2           2           2           2           2           3           3           0
   5            8           8           8           8           2           2           2           3           4           4
   6            8           8           8           8           8           2           2           4           4           4
   7            8           8           8           8           8           2           5           5           5           0
   8            0           8           8           8           8           2           5           5           5           0
   9            0           8           8           8           8           6           6           6           6           0
  10            0           8           8           8           8           6           6           6           6           6
  11            0           8           8           8           8           8           6           6           7           0
  12            8           8           8           8           8           8           6           7           7           0
  13            8           8           8           8           8           8           7           7           7           0
  14            0           8           8           8           8           8           7           7           7           0
  15            0           0           8           8           8           8           0           0           0           0



               SATURATED VERTICAL K
 READING ON UNIT   19 WITH FORMAT: (10F4.0)            

            1           2           3           4           5           6           7           8           9          10
 ........................................................................................................................
   1   1.0000E-05  1.0000E-05   0.000       0.000       0.000       0.000       0.000       0.000       0.000       0.000    
   2   1.0000E-05  1.0000E-05  1.0000E-05   0.000       0.000      1.0000E-05  1.0000E-05  1.0000E-05   0.000       0.000    
   3    0.000      1.0000E-05  1.0000E-05  1.0000E-05  1.0000E-05  1.0000E-05  1.0000E-05  1.0000E-05   0.000       0.000    
   4   1.0000E-05  1.0000E-05  1.0000E-05  1.0000E-05  1.0000E-05  1.0000E-05  1.0000E-05  1.0000E-05  1.0000E-05   0.000    
   5   1.0000E-05  1.0000E-05  1.0000E-05  1.0000E-05  1.0000E-05  1.0000E-05  1.0000E-05  1.0000E-05  1.0000E-05  1.0000E-05
   6   1.0000E-05  1.0000E-05  1.0000E-05  1.0000E-05  1.0000E-05  1.0000E-05  1.0000E-05  1.0000E-05  1.0000E-05  1.0000E-05
   7   1.0000E-05  1.0000E-05  1.0000E-05  1.0000E-05  1.0000E-05  1.0000E-05  1.0000E-05  1.0000E-05  1.0000E-05   0.000    
   8    0.000      1.0000E-05  1.0000E-05  1.0000E-05  1.0000E-05  1.0000E-05  1.0000E-05  1.0000E-05  1.0000E-05   0.000    
   9    0.000      1.0000E-05  1.0000E-05  1.0000E-05  1.0000E-05  1.0000E-05  1.0000E-05  1.0000E-05  1.0000E-05   0.000    
  10    0.000      1.0000E-05  1.0000E-05  1.0000E-05  1.0000E-05  1.0000E-05  1.0000E-05  1.0000E-05  1.0000E-05  1.0000E-05
  11    0.000      1.0000E-05  1.0000E-05  1.0000E-05  1.0000E-05  1.0000E-05  1.0000E-05  1.0000E-05  1.0000E-05   0.000    
  12   1.0000E-05  1.0000E-05  1.0000E-05  1.0000E-05  1.0000E-05  1.0000E-05  1.0000E-05  1.0000E-05  1.0000E-05   0.000    
  13   1.0000E-05  1.0000E-05  1.0000E-05  1.0000E-05  1.0000E-05  1.0000E-05  1.0000E-05  1.0000E-05  1.0000E-05   0.000    
  14    0.000      1.0000E-05  1.0000E-05  1.0000E-05  1.0000E-05  1.0000E-05  1.0000E-05  1.0000E-05  1.0000E-05   0.000    
  15    0.000       0.000      1.0000E-05  1.0000E-05  1.0000E-05  1.0000E-05   0.000       0.000       0.000       0.000    



            LAND SURFACE VERTICAL K
 READING ON UNIT   19 WITH FORMAT: (10F4.0)            

            1           2           3           4           5           6           7           8           9          10
 ........................................................................................................................
   1   1.0000E-05  1.0000E-05   0.000       0.000       0.000       0.000       0.000       0.000       0.000       0.000    
   2   1.0000E-05  1.0000E-05  1.0000E-05   0.000       0.000      1.0000E-05  1.0000E-05  1.0000E-05   0.000       0.000    
   3    0.000      1.0000E-05  1.0000E-05  1.0000E-05  1.0000E-05  1.0000E-05  1.0000E-05  1.0000E-05   0.000       0.000    
   4   1.0000E-05  1.0000E-05  1.0000E-05  1.0000E-05  1.0000E-05  1.0000E-05  1.0000E-05  1.0000E-05  1.0000E-05   0.000    
   5   1.0000E-05  1.0000E-05  1.0000E-05  1.0000E-05  1.0000E-05  1.0000E-05  1.0000E-05  1.0000E-05  1.0000E-05  1.0000E-05
   6   1.0000E-05  1.0000E-05  1.0000E-05  1.0000E-05  1.0000E-05  1.0000E-05  1.0000E-05  1.0000E-05  1.0000E-05  1.0000E-05
   7   1.0000E-05  1.0000E-05  1.0000E-05  1.0000E-05  1.0000E-05  1.0000E-05  1.0000E-05  1.0000E-05  1.0000E-05   0.000    
   8    0.000      1.0000E-05  1.0000E-05  1.0000E-05  1.0000E-05  1.0000E-05  1.0000E-05  1.0000E-05  1.0000E-05   0.000    
   9    0.000      1.0000E-05  1.0000E-05  1.0000E-05  1.0000E-05  1.0000E-05  1.0000E-05  1.0000E-05  1.0000E-05   0.000    
  10    0.000      1.0000E-05  1.0000E-05  1.0000E-05  1.0000E-05  1.0000E-05  1.0000E-05  1.0000E-05  1.0000E-05  1.0000E-05
  11    0.000      1.0000E-05  1.0000E-05  1.0000E-05  1.0000E-05  1.0000E-05  1.0000E-05  1.0000E-05  1.0000E-05   0.000    
  12   1.0000E-05  1.0000E-05  1.0000E-05  1.0000E-05  1.0000E-05  1.0000E-05  1.0000E-05  1.0000E-05  1.0000E-05   0.000    
  13   1.0000E-05  1.0000E-05  1.0000E-05  1.0000E-05  1.0000E-05  1.0000E-05  1.0000E-05  1.0000E-05  1.0000E-05   0.000    
  14    0.000      1.0000E-05  1.0000E-05  1.0000E-05  1.0000E-05  1.0000E-05  1.0000E-05  1.0000E-05  1.0000E-05   0.000    
  15    0.000       0.000      1.0000E-05  1.0000E-05  1.0000E-05  1.0000E-05   0.000       0.000       0.000       0.000    

     BROOKS-COREY EPSILON =   5.50000    

  SATURATED WATER CONTENT =  0.220000    

   RESIDUAL WATER CONTENT =  5.000000E-02

    INITIAL WATER CONTENT =  7.000000E-02

UNSATURATED FLOW RESULTS WILL BE PRINTED TO SEPARATE FILES FOR SELECTED MODEL CELLS, AND TIME STEPS AS DEFINED BY OUTPUT CONTROL PACKAGE 

SELECTED MODEL CELLS ARE: 
 ROW NUMBER  COLUMN NUMBER  FORTRAN UNIT NUMBER  OUTPUT OPTION


       6             4                 65                 1
       6             5                 66                 2
       8             4                 67                 3
       0             0                 68                 4



   9 GAGING STATIONS WERE SPECIFIED.
     (Lakes are identified by a negative value of the Lake Number)
     RECORDS WILL BE WRITTEN TO SEPARATE OUTPUT FILES REPRESENTED BY FOLLOWING UNIT NUMBERS:

 Stream Gages:
  GAGE #   SEGMENT   REACH   UNIT   OUTTYPE
       1       1       4      83       1
       2       2       5      84       1
       3       3       5      85       1
       4       4       3      86       1
       5       5       4      87       4
       6       6       5      88       4
       7       7       3      89       4
       8       8       6      90       4
       9       9       1      91       5





 AWU -- AWU PACKAGE FOR NWT VERSION 1.1.3,  8/01/2017 INPUT READ FROM UNIT   57
 # AWU options

 PROCESSING AWU OPTIONS
 
 AGRICULTURAL DEMANDS WILL BE CALCULATED USING ET DEFICIT
  IRRIGATION RATE ADJUSTMENT FACTOR WAS SET EQUAL TO.  1000.000
 
 
 OPTION TO APPLY SURFACE WATER AS IRRIGATION IS ACTIVE. DIVERTED SURFACE WATER WILL BE APPLIED TO          1 CELLS/RHUS.
 
 
 OPTION TO PUMP SUPPLEMENTARY WATER FOR SURFACE DIVERSION SHORTFALL IS ACTIVATED.  A TOTAL OF             6 SUPPLEMENTAL WELLS ARE ACTIVE
 
 
 OPTION TO APPLY PUMPED WATER AS IRRIGATION IS ACTIVE. PUMPED IRRIGATION WATER WILL BE APPLIED TO          6 CELLS/RHUS.
 
 
 THE MAXIMUM NUMBER OF WELLS FOR SUPPLEMENTING DIVERSIONS OR APPLYING IRRIGATION IS          6 WELLS.
 
 
  UNFORMATTED CELL BY CELL RATES FOR SUP AND IRR WELLS WILL BE SAVED TO FILE UNIT NUMBER         -2
 
 
  UNFORMATTED CELL BY CELL RATES FOR SUP AND IRR WELLS WILL BE SAVED TO FILE UNIT NUMBER         -2
 
 
  UNFORMATTED CELL BY CELL RATES FOR SUP AND IRR WELLS WILL BE SAVED TO FILE UNIT NUMBER         -2
 
 
  UNFORMATTED CELL BY CELL RATES FOR SUP AND IRR WELLS WILL BE SAVED TO FILE UNIT NUMBER         -2
 
 
  GROUND WATER IRRIGATION, POTENTIAL AND ACTUAL ET WILL BE SAVED TO TIMES SERIES OUTPUT FILES.
 
 
  SURFACE WATER IRRIGATION, POTENTIAL AND ACTUAL ET WILL BE SAVED TO TIMES SERIES OUTPUT FILES.
 
 
  SURFACE WATER IRRIGATION, POTENTIAL AND ACTUAL ET WILL BE SAVED TO TIMES SERIES OUTPUT FILES.
 

 END PROCESSING AWU OPTIONS
 # AWU time series

 PROCESSING TIME SERIES

 FINISHED READING TIME SERIES
 A total number of          1 AWU output time series files were activated for SURFACE WATER 
 A total number of          1 AWU output time series files were activated for GROUNDWATER 
 A total number of          1 AWU output time series files were activated for SURFACE WATER ET
 A total number of          0 AWU output time series files were activated for GROUNDWATER ET
1
                            STRESS PERIOD NO.    1, LENGTH =   86400.00    
                            -----------------------------------------------

                              NUMBER OF TIME STEPS =     1

                               MULTIPLIER FOR DELT =     1.000

                            INITIAL TIME STEP SIZE =   86400.00    

 BOUND. NO. LAYER   ROW   COL     STAGE      CONDUCTANCE         
 ----------------------------------------------------------------
      1      1     13      1       988.0          0.3800E-01
      2      1     14      9       1045.          0.3800E-01

      2 GHB CELLS



 CLASSIFICATION & COUNT OF STREAM SEGMENTS BASED ON SOURCE OF INFLOW:

                HEADWATER     DIVERSION     RECEIVES TRIBUTARY FLOW
                ---------     ---------     -----------------------
                     3              2               4



                    INPUT DATA FOR EACH STREAM SEGMENT
 ---------------------------------------------------------------------------------------------

 SEGMENT    SEG.     INFLOW   OVERLAND   STREAM    STREAM   ICALC  OUTFLOW  DIVERSION PRIORITY
    NO.    LENGTH     RATE     RUNOFF      ET       PPT.    METH.  TO SEG.  FROM SEG.    NO.

      1  2.305E+04 2.500E+01 0.000E+00 0.000E+00 0.000E+00    4        2        0        0
      2  2.650E+04 0.000E+00 0.000E+00 0.000E+00 0.000E+00    1        6        0        0
      3  2.750E+04 2.000E+00 0.000E+00 0.000E+00 0.000E+00    0        5        1        0
      4  1.100E+04 1.000E+01 0.000E+00 0.000E+00 0.000E+00    1        5        0        0
      5  1.500E+04 0.000E+00 0.000E+00 0.000E+00 0.000E+00    3        6        0        0
      6  2.200E+04 0.000E+00 0.000E+00 0.000E+00 0.000E+00    1        8        0        0
      7  1.550E+04 1.500E+02 0.000E+00 0.000E+00 0.000E+00    2        8        0        0
      8  2.800E+04 0.000E+00 0.000E+00 0.000E+00 0.000E+00    2        0        0        0
      9  6.000E+03 0.000E+00 0.000E+00 0.000E+00 0.000E+00    1        0        2        0


         STREAMBED PROPERTIES AND STREAM DIMENSIONS

 SEGMENT     BED HYD. COND.      BED THICKNESS     ELEV.-TOP OF BED     WIDTH OF STREAM     DEPTH OF STREAM    STREAM ROUGHNESS
    No.     UPPER     LOWER     UPPER     LOWER     UPPER     LOWER     UPPER     LOWER     UPPER     LOWER   CHANNEL      BANK

     1  3.000E-05 3.000E-05 3.000E+00 3.000E+00 1.095E+03 1.075E+03
     2  3.000E-05 3.000E-05 3.000E+00 3.000E+00 1.075E+03 1.050E+03 1.200E+01 1.200E+01                     3.000E-02
     3  3.000E-05 3.000E-05 2.000E+00 2.000E+00 1.075E+03 1.060E+03 1.000E+01 6.000E+00 2.000E+00 1.000E+00
     4  3.000E-05 3.000E-05 3.000E+00 3.000E+00 1.080E+03 1.060E+03 1.000E+01 1.000E+01                     3.000E-02
     5  3.000E-05 3.000E-05 3.000E+00 3.000E+00 1.060E+03 1.045E+03
     6  3.000E-05 3.000E-05 3.000E+00 3.000E+00 1.045E+03 1.025E+03 1.200E+01 1.200E+01                     3.000E-02
     7  6.000E-05 6.000E-05 3.000E+00 3.000E+00 1.040E+03 1.025E+03                                         2.500E-02 4.500E-02
     8  6.000E-05 6.000E-05 3.000E+00 3.000E+00 1.025E+03 9.900E+02                                         2.500E-02 4.500E-02
     9  0.000E+00 0.000E+00 3.000E+00 3.000E+00 1.079E+03 1.078E+03 4.000E+00 4.000E+00                     3.000E-02

  EIGHT POINT CROSS-SECTION DATA FOR SEGMENTS WITH ICALC = 2
    X VALUES X VALUES START FROM LEFT SIDE LOOKING DOWNSTREAM

     SEGMENT NO.        X1        X2        X3        X4        X5        X6        X7        X8
            7      0.000E+00 1.000E+01 8.000E+01 1.000E+02 1.500E+02 1.700E+02 2.400E+02 2.500E+02
            8      0.000E+00 1.000E+01 8.000E+01 1.000E+02 1.500E+02 1.700E+02 2.400E+02 2.500E+02

    Z VALUES ARE RELATIVE TO STREAMBED ELEVATION

     SEGMENT NO.          Z1        Z2        Z3        Z4        Z5        Z6        Z7        Z8
            7      2.000E+01 1.300E+01 1.000E+01 2.000E+00 0.000E+00 1.000E+01 1.300E+01 2.000E+01
            8      2.500E+01 1.700E+01 1.300E+01 4.000E+00 0.000E+00 1.000E+01 1.600E+01 2.000E+01

 STREAMFLOW RELATION WITH DEPTH IS BASED ON EQUATION Q = CDPTH*(DEPTH)**FDPTH
 STREAMFLOW RELATION WITH WIDTH IS BASED ON EQUATION Q = AWDTH*(WIDTH)**BWDTH

 SEGMENT NO.      CDPTH     FDPTH    AWDTH     BWDTH

          5 3.000E-01 3.500E-01 3.800E+00 6.000E-01

 STREAMFLOW RELATION WITH DEPTH AND WIDTH IS BASED ON TABULATED VALUES

  SEGMENT NO.   STREAMFLOW       DEPTH       WIDTH

          1     5.0000E-01   2.5000E-01   3.0000E+00
          1     1.0000E+00   4.0000E-01   3.5000E+00
          1     2.0000E+00   5.5000E-01   4.2000E+00
          1     4.0000E+00   7.0000E-01   5.3000E+00
          1     7.0000E+00   8.0000E-01   7.0000E+00
          1     1.0000E+01   9.0000E-01   8.5000E+00
          1     2.0000E+01   1.1000E+00   1.2000E+01
          1     3.0000E+01   1.2500E+00   1.4000E+01
          1     5.0000E+01   1.4000E+00   1.7000E+01
          1     7.5000E+01   1.7000E+00   2.0000E+01
          1     1.0000E+02   1.8000E+00   2.2000E+01



TABULAR INFLOWS WERE READ FOR SEGMENT      1
FROM FILE UNIT NUMBER     55

          TIMES                    INFLOWS
             0.0000000000         5.0000000000
         86400.0000000000        22.0000000000
       2760000.0000000000        42.0000000000
       5270000.0000000000        77.0000000000
       7950000.0000000000        28.0000000000
      10500000.0000000000        99.0000000000
      13200000.0000000000        83.0000000000
      15800000.0000000000        75.0000000000
      18500000.0000000000        61.0000000000
      21200000.0000000000        47.0000000000
      23800000.0000000000        35.0000000000
      26400000.0000000000        26.0000000000
      29000000.0000000000        23.0000000000
      31700000.0000000000        19.0000000000
      34400000.0000000000        21.0000000000
      36800000.0000000000        98.0000000000
      39500000.0000000000        75.0000000000
      42100000.0000000000        63.0000000000
      44800000.0000000000        58.0000000000
      47300000.0000000000        54.0000000000
      50000000.0000000000        37.0000000000
      52700000.0000000000        25.0000000000
      55300000.0000000000        22.0000000000
      58000000.0000000000        21.0000000000
      60600000.0000000000        20.0000000000
      63200000.0000000000        19.0000000000
TABULAR INFLOWS WERE READ FOR SEGMENT      9
FROM FILE UNIT NUMBER     56

          TIMES                    INFLOWS
             0.0000000000         0.0000000000
         86400.0000000000         0.0000000000
        172800.0000000000         0.0000000000
        259200.0000000000         0.0000000000
        345600.0000000000         0.0000000000
        432000.0000000000         0.0000000000
        518400.0000000000         0.0000000000
        604800.0000000000         0.0000000000
        691200.0000000000         0.0000000000
        777600.0000000000         0.0000000000
        864000.0000000000         0.0000000000
        950400.0000000000         0.0000000000
       1036800.0000000000         0.0000000000
       1123200.0000000000         0.0000000000
       1209600.0000000000         0.0000000000
       1296000.0000000000         0.0000000000
       1382400.0000000000         0.0000000000
       1468800.0000000000         0.0000000000
       1555200.0000000000         0.0000000000
       1641600.0000000000         0.0000000000
       1728000.0000000000         0.0000000000
       1814400.0000000000         0.0000000000
       1900800.0000000000         0.0000000000
       1987200.0000000000         0.0000000000
       2073600.0000000000         0.0000000000
       2160000.0000000000         0.0000000000
       2246400.0000000000         0.0000000000
       2332800.0000000000         0.0000000000
       2419200.0000000000         0.0000000000
       2505600.0000000000         0.0000000000
       2592000.0000000000         0.0000000000
       2678400.0000000000         0.0000000000
       2764800.0000000000         0.0000000000
       2851200.0000000000         0.0000000000
       2937600.0000000000         0.0000000000
       3024000.0000000000         0.0000000000
       3110400.0000000000         0.0000000000
       3196800.0000000000         0.0000000000
       3283200.0000000000         0.0000000000
       3369600.0000000000         0.0000000000
       3456000.0000000000         0.0000000000
       3542400.0000000000         0.0000000000
       3628800.0000000000         0.0000000000
       3715200.0000000000         0.0000000000
       3801600.0000000000         0.0000000000
       3888000.0000000000         0.0000000000
       3974400.0000000000         0.0000000000
       4060800.0000000000         0.0000000000
       4147200.0000000000         0.0000000000
       4233600.0000000000         0.0000000000
       4320000.0000000000         0.0000000000
       4406400.0000000000         0.0000000000
       4492800.0000000000         0.0000000000
       4579200.0000000000         0.0000000000
       4665600.0000000000         0.0000000000
       4752000.0000000000         0.0000000000
       4838400.0000000000         0.0000000000
       4924800.0000000000         0.0000000000
       5011200.0000000000         0.0000000000
       5097600.0000000000         0.0000000000
       5184000.0000000000         0.0000000000
       5270400.0000000000         0.0000000000
       5356800.0000000000         0.0000000000
       5443200.0000000000         0.0000000000
       5529600.0000000000         0.0000000000
       5616000.0000000000         0.0000000000
       5702400.0000000000         0.0000000000
       5788800.0000000000         0.0000000000
       5875200.0000000000         0.0000000000
       5961600.0000000000         0.0000000000
       6048000.0000000000         0.0000000000
       6134400.0000000000         0.0000000000
       6220800.0000000000         0.0000000000
       6307200.0000000000         0.0000000000
       6393600.0000000000         0.0000000000
       6480000.0000000000         0.0000000000
       6566400.0000000000         0.0000000000
       6652800.0000000000         0.0000000000
       6739200.0000000000         0.0000000000
       6825600.0000000000         0.0000000000
       6912000.0000000000         0.0000000000
       6998400.0000000000         0.0000000000
       7084800.0000000000         0.0000000000
       7171200.0000000000         0.0000000000
       7257600.0000000000         0.0000000000
       7344000.0000000000         0.0000000000
       7430400.0000000000         0.0000000000
       7516800.0000000000         0.0000000000
       7603200.0000000000         0.0000000000
       7689600.0000000000         0.0000000000
       7776000.0000000000         0.0000000000
       7862400.0000000000        55.0000000000
       7948800.0000000000        55.0000000000
       8035200.0000000000        55.0000000000
       8121600.0000000000        55.0000000000
       8208000.0000000000        55.0000000000
       8294400.0000000000        55.0000000000
       8380800.0000000000        55.0000000000
       8467200.0000000000         0.0000000000
       8553600.0000000000         0.0000000000
       8640000.0000000000         0.0000000000
       8726400.0000000000         0.0000000000
       8812800.0000000000         0.0000000000
       8899200.0000000000         0.0000000000
       8985600.0000000000         0.0000000000
       9072000.0000000000        55.0000000000
       9158400.0000000000        55.0000000000
       9244800.0000000000        55.0000000000
       9331200.0000000000        55.0000000000
       9417600.0000000000        55.0000000000
       9504000.0000000000        55.0000000000
       9590400.0000000000        55.0000000000
       9676800.0000000000         0.0000000000
       9763200.0000000000         0.0000000000
       9849600.0000000000         0.0000000000
       9936000.0000000000         0.0000000000
      10022000.0000000000         0.0000000000
      10109000.0000000000         0.0000000000
      10195000.0000000000         0.0000000000
      10282000.0000000000         0.0000000000
      10368000.0000000000         0.0000000000
      10454000.0000000000        55.0000000000
      10541000.0000000000        55.0000000000
      10627000.0000000000        55.0000000000
      10714000.0000000000        55.0000000000
      10800000.0000000000        55.0000000000
      10886000.0000000000        55.0000000000
      10973000.0000000000        55.0000000000
      11059000.0000000000         0.0000000000
      11146000.0000000000         0.0000000000
      11232000.0000000000         0.0000000000
      11318000.0000000000         0.0000000000
      11405000.0000000000         0.0000000000
      11491000.0000000000         0.0000000000
      11578000.0000000000         0.0000000000
      11664000.0000000000        55.0000000000
      11750000.0000000000        55.0000000000
      11837000.0000000000        55.0000000000
      11923000.0000000000        55.0000000000
      12010000.0000000000        55.0000000000
      12096000.0000000000        55.0000000000
      12182000.0000000000        55.0000000000
      12269000.0000000000         0.0000000000
      12355000.0000000000         0.0000000000
      12442000.0000000000         0.0000000000
      12528000.0000000000         0.0000000000
      12614000.0000000000         0.0000000000
      12701000.0000000000         0.0000000000
      12787000.0000000000         0.0000000000
      12874000.0000000000        55.0000000000
      12960000.0000000000        55.0000000000
      13046000.0000000000        55.0000000000
      13133000.0000000000        55.0000000000
      13219000.0000000000        55.0000000000
      13306000.0000000000        55.0000000000
      13392000.0000000000        55.0000000000
      13478000.0000000000         0.0000000000
      13565000.0000000000         0.0000000000
      13651000.0000000000         0.0000000000
      13738000.0000000000         0.0000000000
      13824000.0000000000         0.0000000000
      13910000.0000000000         0.0000000000
      13997000.0000000000         0.0000000000
      14083000.0000000000        55.0000000000
      14170000.0000000000        55.0000000000
      14256000.0000000000        55.0000000000
      14342000.0000000000        55.0000000000
      14429000.0000000000        55.0000000000
      14515000.0000000000        55.0000000000
      14602000.0000000000        55.0000000000
      14688000.0000000000         0.0000000000
      14774000.0000000000         0.0000000000
      14861000.0000000000         0.0000000000
      14947000.0000000000         0.0000000000
      15034000.0000000000         0.0000000000
      15120000.0000000000         0.0000000000
      15206000.0000000000         0.0000000000
      15293000.0000000000        55.0000000000
      15379000.0000000000        55.0000000000
      15466000.0000000000        55.0000000000
      15552000.0000000000        55.0000000000
      15638000.0000000000        55.0000000000
      15725000.0000000000        55.0000000000
      15811000.0000000000        55.0000000000
      15898000.0000000000         0.0000000000
      15984000.0000000000         0.0000000000
      16070000.0000000000         0.0000000000
      16157000.0000000000         0.0000000000
      16243000.0000000000         0.0000000000
      16330000.0000000000         0.0000000000
      16416000.0000000000         0.0000000000
      16502000.0000000000        55.0000000000
      16589000.0000000000        55.0000000000
      16675000.0000000000        55.0000000000
      16762000.0000000000        55.0000000000
      16848000.0000000000        55.0000000000
      16934000.0000000000        55.0000000000
      17021000.0000000000        55.0000000000
      17107000.0000000000         0.0000000000
      17194000.0000000000         0.0000000000
      17280000.0000000000         0.0000000000
      17366000.0000000000         0.0000000000
      17453000.0000000000         0.0000000000
      17539000.0000000000         0.0000000000
      17626000.0000000000         0.0000000000
      17712000.0000000000        55.0000000000
      17798000.0000000000        55.0000000000
      17885000.0000000000        55.0000000000
      17971000.0000000000        55.0000000000
      18058000.0000000000        55.0000000000
      18144000.0000000000        55.0000000000
      18230000.0000000000        55.0000000000
      18317000.0000000000         0.0000000000
      18403000.0000000000         0.0000000000
      18490000.0000000000         0.0000000000
      18576000.0000000000         0.0000000000
      18662000.0000000000         0.0000000000
      18749000.0000000000         0.0000000000
      18835000.0000000000         0.0000000000
      18922000.0000000000        55.0000000000
      19008000.0000000000        55.0000000000
      19094000.0000000000        55.0000000000
      19181000.0000000000        55.0000000000
      19267000.0000000000        55.0000000000
      19354000.0000000000        55.0000000000
      19440000.0000000000        55.0000000000
      19526000.0000000000         0.0000000000
      19613000.0000000000         0.0000000000
      19699000.0000000000         0.0000000000
      19786000.0000000000         0.0000000000
      19872000.0000000000         0.0000000000
      19958000.0000000000         0.0000000000
      20045000.0000000000         0.0000000000
      20131000.0000000000        55.0000000000
      20218000.0000000000        55.0000000000
      20304000.0000000000        55.0000000000
      20390000.0000000000        55.0000000000
      20477000.0000000000        55.0000000000
      20563000.0000000000        55.0000000000
      20650000.0000000000        55.0000000000
      20736000.0000000000         0.0000000000
      20822000.0000000000         0.0000000000
      20909000.0000000000         0.0000000000
      20995000.0000000000         0.0000000000
      21082000.0000000000         0.0000000000
      21168000.0000000000         0.0000000000
      21254000.0000000000         0.0000000000
      21341000.0000000000        55.0000000000
      21427000.0000000000        55.0000000000
      21514000.0000000000        55.0000000000
      21600000.0000000000        55.0000000000
      21686000.0000000000        55.0000000000
      21773000.0000000000        55.0000000000
      21859000.0000000000        55.0000000000
      21946000.0000000000         0.0000000000
      22032000.0000000000         0.0000000000
      22118000.0000000000         0.0000000000
      22205000.0000000000         0.0000000000
      22291000.0000000000         0.0000000000
      22378000.0000000000         0.0000000000
      22464000.0000000000         0.0000000000
      22550000.0000000000        55.0000000000
      22637000.0000000000        55.0000000000
      22723000.0000000000        55.0000000000
      22810000.0000000000        55.0000000000
      22896000.0000000000        55.0000000000
      22982000.0000000000        55.0000000000
      23069000.0000000000        55.0000000000
      23155000.0000000000         0.0000000000
      23242000.0000000000         0.0000000000
      23328000.0000000000         0.0000000000
      23414000.0000000000         0.0000000000
      23501000.0000000000         0.0000000000
      23587000.0000000000         0.0000000000
      23674000.0000000000         0.0000000000
      23760000.0000000000         0.0000000000
      23846000.0000000000         0.0000000000
      23933000.0000000000         0.0000000000
      24019000.0000000000         0.0000000000
      24106000.0000000000         0.0000000000
      24192000.0000000000         0.0000000000
      24278000.0000000000         0.0000000000
      24365000.0000000000         0.0000000000
      24451000.0000000000         0.0000000000
      24538000.0000000000         0.0000000000
      24624000.0000000000         0.0000000000
      24710000.0000000000         0.0000000000
      24797000.0000000000         0.0000000000
      24883000.0000000000         0.0000000000
      24970000.0000000000         0.0000000000
      25056000.0000000000         0.0000000000
      25142000.0000000000         0.0000000000
      25229000.0000000000         0.0000000000
      25315000.0000000000         0.0000000000
      25402000.0000000000         0.0000000000
      25488000.0000000000         0.0000000000
      25574000.0000000000         0.0000000000
      25661000.0000000000         0.0000000000
      25747000.0000000000         0.0000000000
      25834000.0000000000         0.0000000000
      25920000.0000000000         0.0000000000
      26006000.0000000000         0.0000000000
      26093000.0000000000         0.0000000000
      26179000.0000000000         0.0000000000
      26266000.0000000000         0.0000000000
      26352000.0000000000         0.0000000000
      26438000.0000000000         0.0000000000
      26525000.0000000000         0.0000000000
      26611000.0000000000         0.0000000000
      26698000.0000000000         0.0000000000
      26784000.0000000000         0.0000000000
      26870000.0000000000         0.0000000000
      26957000.0000000000         0.0000000000
      27043000.0000000000         0.0000000000
      27130000.0000000000         0.0000000000
      27216000.0000000000         0.0000000000
      27302000.0000000000         0.0000000000
      27389000.0000000000         0.0000000000
      27475000.0000000000         0.0000000000
      27562000.0000000000         0.0000000000
      27648000.0000000000         0.0000000000
      27734000.0000000000         0.0000000000
      27821000.0000000000         0.0000000000
      27907000.0000000000         0.0000000000
      27994000.0000000000         0.0000000000
      28080000.0000000000         0.0000000000
      28166000.0000000000         0.0000000000
      28253000.0000000000         0.0000000000
      28339000.0000000000         0.0000000000
      28426000.0000000000         0.0000000000
      28512000.0000000000         0.0000000000
      28598000.0000000000         0.0000000000
      28685000.0000000000         0.0000000000
      28771000.0000000000         0.0000000000
      28858000.0000000000         0.0000000000
      28944000.0000000000         0.0000000000
      29030000.0000000000         0.0000000000
      29117000.0000000000         0.0000000000
      29203000.0000000000         0.0000000000
      29290000.0000000000         0.0000000000
      29376000.0000000000         0.0000000000
      29462000.0000000000         0.0000000000
      29549000.0000000000         0.0000000000
      29635000.0000000000         0.0000000000
      29722000.0000000000         0.0000000000
      29808000.0000000000         0.0000000000
      29894000.0000000000         0.0000000000
      29981000.0000000000         0.0000000000
      30067000.0000000000         0.0000000000
      30154000.0000000000         0.0000000000
      30240000.0000000000         0.0000000000
      30326000.0000000000         0.0000000000
      30413000.0000000000         0.0000000000
      30499000.0000000000         0.0000000000
      30586000.0000000000         0.0000000000
      30672000.0000000000         0.0000000000
      30758000.0000000000         0.0000000000
      30845000.0000000000         0.0000000000
      30931000.0000000000         0.0000000000
      31018000.0000000000         0.0000000000
      31104000.0000000000         0.0000000000
      31190000.0000000000         0.0000000000
      31277000.0000000000         0.0000000000
      31363000.0000000000         0.0000000000
      31450000.0000000000         0.0000000000
      31536000.0000000000         0.0000000000
      31622000.0000000000         0.0000000000
      31709000.0000000000         0.0000000000
      31795000.0000000000         0.0000000000
      31882000.0000000000         0.0000000000
      31968000.0000000000         0.0000000000
      32054000.0000000000         0.0000000000
      32141000.0000000000         0.0000000000
      32227000.0000000000         0.0000000000
      32314000.0000000000         0.0000000000
      32400000.0000000000         0.0000000000
      32486000.0000000000         0.0000000000
      32573000.0000000000         0.0000000000
      32659000.0000000000         0.0000000000
      32746000.0000000000         0.0000000000
      32832000.0000000000         0.0000000000
      32918000.0000000000         0.0000000000
      33005000.0000000000         0.0000000000
      33091000.0000000000         0.0000000000
      33178000.0000000000         0.0000000000
      33264000.0000000000         0.0000000000
      33350000.0000000000         0.0000000000
      33437000.0000000000         0.0000000000
      33523000.0000000000         0.0000000000
      33610000.0000000000         0.0000000000
      33696000.0000000000         0.0000000000
      33782000.0000000000         0.0000000000
      33869000.0000000000         0.0000000000
      33955000.0000000000         0.0000000000
      34042000.0000000000         0.0000000000
      34128000.0000000000         0.0000000000
      34214000.0000000000         0.0000000000
      34301000.0000000000         0.0000000000
      34387000.0000000000         0.0000000000
      34474000.0000000000         0.0000000000
      34560000.0000000000         0.0000000000
      34646000.0000000000         0.0000000000
      34733000.0000000000         0.0000000000
      34819000.0000000000         0.0000000000
      34906000.0000000000         0.0000000000
      34992000.0000000000         0.0000000000
      35078000.0000000000         0.0000000000
      35165000.0000000000         0.0000000000
      35251000.0000000000         0.0000000000
      35338000.0000000000         0.0000000000
      35424000.0000000000         0.0000000000
      35510000.0000000000         0.0000000000
      35597000.0000000000         0.0000000000
      35683000.0000000000         0.0000000000
      35770000.0000000000         0.0000000000
      35856000.0000000000         0.0000000000
      35942000.0000000000         0.0000000000
      36029000.0000000000         0.0000000000
      36115000.0000000000         0.0000000000
      36202000.0000000000         0.0000000000
      36288000.0000000000         0.0000000000
      36374000.0000000000         0.0000000000
      36461000.0000000000         0.0000000000
      36547000.0000000000         0.0000000000
      36634000.0000000000         0.0000000000
      36720000.0000000000         0.0000000000
      36806000.0000000000         0.0000000000
      36893000.0000000000         0.0000000000
      36979000.0000000000         0.0000000000
      37066000.0000000000         0.0000000000
      37152000.0000000000         0.0000000000
      37238000.0000000000         0.0000000000
      37325000.0000000000         0.0000000000
      37411000.0000000000         0.0000000000
      37498000.0000000000         0.0000000000
      37584000.0000000000         0.0000000000
      37670000.0000000000         0.0000000000
      37757000.0000000000         0.0000000000
      37843000.0000000000         0.0000000000
      37930000.0000000000         0.0000000000
      38016000.0000000000         0.0000000000
      38102000.0000000000         0.0000000000
      38189000.0000000000         0.0000000000
      38275000.0000000000         0.0000000000
      38362000.0000000000         0.0000000000
      38448000.0000000000         0.0000000000
      38534000.0000000000         0.0000000000
      38621000.0000000000         0.0000000000
      38707000.0000000000         0.0000000000
      38794000.0000000000         0.0000000000
      38880000.0000000000         0.0000000000
      38966000.0000000000        55.0000000000
      39053000.0000000000        55.0000000000
      39139000.0000000000        55.0000000000
      39226000.0000000000        55.0000000000
      39312000.0000000000        55.0000000000
      39398000.0000000000        55.0000000000
      39485000.0000000000        55.0000000000
      39571000.0000000000         0.0000000000
      39658000.0000000000         0.0000000000
      39744000.0000000000         0.0000000000
      39830000.0000000000         0.0000000000
      39917000.0000000000         0.0000000000
      40003000.0000000000         0.0000000000
      40090000.0000000000         0.0000000000
      40176000.0000000000        55.0000000000
      40262000.0000000000        55.0000000000
      40349000.0000000000        55.0000000000
      40435000.0000000000        55.0000000000
      40522000.0000000000        55.0000000000
      40608000.0000000000        55.0000000000
      40694000.0000000000        55.0000000000
      40781000.0000000000         0.0000000000
      40867000.0000000000         0.0000000000
      40954000.0000000000         0.0000000000
      41040000.0000000000         0.0000000000
      41126000.0000000000         0.0000000000
      41213000.0000000000         0.0000000000
      41299000.0000000000         0.0000000000
      41386000.0000000000         0.0000000000
      41472000.0000000000         0.0000000000
      41558000.0000000000        55.0000000000
      41645000.0000000000        55.0000000000
      41731000.0000000000        55.0000000000
      41818000.0000000000        55.0000000000
      41904000.0000000000        55.0000000000
      41990000.0000000000        55.0000000000
      42077000.0000000000        55.0000000000
      42163000.0000000000         0.0000000000
      42250000.0000000000         0.0000000000
      42336000.0000000000         0.0000000000
      42422000.0000000000         0.0000000000
      42509000.0000000000         0.0000000000
      42595000.0000000000         0.0000000000
      42682000.0000000000         0.0000000000
      42768000.0000000000        55.0000000000
      42854000.0000000000        55.0000000000
      42941000.0000000000        55.0000000000
      43027000.0000000000        55.0000000000
      43114000.0000000000        55.0000000000
      43200000.0000000000        55.0000000000
      43286000.0000000000        55.0000000000
      43373000.0000000000         0.0000000000
      43459000.0000000000         0.0000000000
      43546000.0000000000         0.0000000000
      43632000.0000000000         0.0000000000
      43718000.0000000000         0.0000000000
      43805000.0000000000         0.0000000000
      43891000.0000000000         0.0000000000
      43978000.0000000000        55.0000000000
      44064000.0000000000        55.0000000000
      44150000.0000000000        55.0000000000
      44237000.0000000000        55.0000000000
      44323000.0000000000        55.0000000000
      44410000.0000000000        55.0000000000
      44496000.0000000000        55.0000000000
      44582000.0000000000         0.0000000000
      44669000.0000000000         0.0000000000
      44755000.0000000000         0.0000000000
      44842000.0000000000         0.0000000000
      44928000.0000000000         0.0000000000
      45014000.0000000000         0.0000000000
      45101000.0000000000         0.0000000000
      45187000.0000000000        55.0000000000
      45274000.0000000000        55.0000000000
      45360000.0000000000        55.0000000000
      45446000.0000000000        55.0000000000
      45533000.0000000000        55.0000000000
      45619000.0000000000        55.0000000000
      45706000.0000000000        55.0000000000
      45792000.0000000000         0.0000000000
      45878000.0000000000         0.0000000000
      45965000.0000000000         0.0000000000
      46051000.0000000000         0.0000000000
      46138000.0000000000         0.0000000000
      46224000.0000000000         0.0000000000
      46310000.0000000000         0.0000000000
      46397000.0000000000        55.0000000000
      46483000.0000000000        55.0000000000
      46570000.0000000000        55.0000000000
      46656000.0000000000        55.0000000000
      46742000.0000000000        55.0000000000
      46829000.0000000000        55.0000000000
      46915000.0000000000        55.0000000000
      47002000.0000000000         0.0000000000
      47088000.0000000000         0.0000000000
      47174000.0000000000         0.0000000000
      47261000.0000000000         0.0000000000
      47347000.0000000000         0.0000000000
      47434000.0000000000         0.0000000000
      47520000.0000000000         0.0000000000
      47606000.0000000000        55.0000000000
      47693000.0000000000        55.0000000000
      47779000.0000000000        55.0000000000
      47866000.0000000000        55.0000000000
      47952000.0000000000        55.0000000000
      48038000.0000000000        55.0000000000
      48125000.0000000000        55.0000000000
      48211000.0000000000         0.0000000000
      48298000.0000000000         0.0000000000
      48384000.0000000000         0.0000000000
      48470000.0000000000         0.0000000000
      48557000.0000000000         0.0000000000
      48643000.0000000000         0.0000000000
      48730000.0000000000         0.0000000000
      48816000.0000000000        55.0000000000
      48902000.0000000000        55.0000000000
      48989000.0000000000        55.0000000000
      49075000.0000000000        55.0000000000
      49162000.0000000000        55.0000000000
      49248000.0000000000        55.0000000000
      49334000.0000000000        55.0000000000
      49421000.0000000000         0.0000000000
      49507000.0000000000         0.0000000000
      49594000.0000000000         0.0000000000
      49680000.0000000000         0.0000000000
      49766000.0000000000         0.0000000000
      49853000.0000000000         0.0000000000
      49939000.0000000000         0.0000000000
      50026000.0000000000        55.0000000000
      50112000.0000000000        55.0000000000
      50198000.0000000000        55.0000000000
      50285000.0000000000        55.0000000000
      50371000.0000000000        55.0000000000
      50458000.0000000000        55.0000000000
      50544000.0000000000        55.0000000000
      50630000.0000000000         0.0000000000
      50717000.0000000000         0.0000000000
      50803000.0000000000         0.0000000000
      50890000.0000000000         0.0000000000
      50976000.0000000000         0.0000000000
      51062000.0000000000         0.0000000000
      51149000.0000000000         0.0000000000
      51235000.0000000000        55.0000000000
      51322000.0000000000        55.0000000000
      51408000.0000000000        55.0000000000
      51494000.0000000000        55.0000000000
      51581000.0000000000        55.0000000000
      51667000.0000000000        55.0000000000
      51754000.0000000000        55.0000000000
      51840000.0000000000         0.0000000000
      51926000.0000000000         0.0000000000
      52013000.0000000000         0.0000000000
      52099000.0000000000         0.0000000000
      52186000.0000000000         0.0000000000
      52272000.0000000000         0.0000000000
      52358000.0000000000         0.0000000000
      52445000.0000000000        55.0000000000
      52531000.0000000000        55.0000000000
      52618000.0000000000        55.0000000000
      52704000.0000000000        55.0000000000
      52790000.0000000000        55.0000000000
      52877000.0000000000        55.0000000000
      52963000.0000000000        55.0000000000
      53050000.0000000000         0.0000000000
      53136000.0000000000         0.0000000000
      53222000.0000000000         0.0000000000
      53309000.0000000000         0.0000000000
      53395000.0000000000         0.0000000000
      53482000.0000000000         0.0000000000
      53568000.0000000000         0.0000000000
      53654000.0000000000        55.0000000000
      53741000.0000000000        55.0000000000
      53827000.0000000000        55.0000000000
      53914000.0000000000        55.0000000000
      54000000.0000000000        55.0000000000
      54086000.0000000000        55.0000000000
      54173000.0000000000        55.0000000000
      54259000.0000000000         0.0000000000
      54346000.0000000000         0.0000000000
      54432000.0000000000         0.0000000000
      54518000.0000000000         0.0000000000
      54605000.0000000000         0.0000000000
      54691000.0000000000         0.0000000000
      54778000.0000000000         0.0000000000
      54864000.0000000000         0.0000000000
      54950000.0000000000         0.0000000000
      55037000.0000000000         0.0000000000
      55123000.0000000000         0.0000000000
      55210000.0000000000         0.0000000000
      55296000.0000000000         0.0000000000
      55382000.0000000000         0.0000000000
      55469000.0000000000         0.0000000000
      55555000.0000000000         0.0000000000
      55642000.0000000000         0.0000000000
      55728000.0000000000         0.0000000000
      55814000.0000000000         0.0000000000
      55901000.0000000000         0.0000000000
      55987000.0000000000         0.0000000000
      56074000.0000000000         0.0000000000
      56160000.0000000000         0.0000000000
      56246000.0000000000         0.0000000000
      56333000.0000000000         0.0000000000
      56419000.0000000000         0.0000000000
      56506000.0000000000         0.0000000000
      56592000.0000000000         0.0000000000
      56678000.0000000000         0.0000000000
      56765000.0000000000         0.0000000000
      56851000.0000000000         0.0000000000
      56938000.0000000000         0.0000000000
      57024000.0000000000         0.0000000000
      57110000.0000000000         0.0000000000
      57197000.0000000000         0.0000000000
      57283000.0000000000         0.0000000000
      57370000.0000000000         0.0000000000
      57456000.0000000000         0.0000000000
      57542000.0000000000         0.0000000000
      57629000.0000000000         0.0000000000
      57715000.0000000000         0.0000000000
      57802000.0000000000         0.0000000000
      57888000.0000000000         0.0000000000
      57974000.0000000000         0.0000000000
      58061000.0000000000         0.0000000000
      58147000.0000000000         0.0000000000
      58234000.0000000000         0.0000000000
      58320000.0000000000         0.0000000000
      58406000.0000000000         0.0000000000
      58493000.0000000000         0.0000000000
      58579000.0000000000         0.0000000000
      58666000.0000000000         0.0000000000
      58752000.0000000000         0.0000000000
      58838000.0000000000         0.0000000000
      58925000.0000000000         0.0000000000
      59011000.0000000000         0.0000000000
      59098000.0000000000         0.0000000000
      59184000.0000000000         0.0000000000
      59270000.0000000000         0.0000000000
      59357000.0000000000         0.0000000000
      59443000.0000000000         0.0000000000
      59530000.0000000000         0.0000000000
      59616000.0000000000         0.0000000000
      59702000.0000000000         0.0000000000
      59789000.0000000000         0.0000000000
      59875000.0000000000         0.0000000000
      59962000.0000000000         0.0000000000
      60048000.0000000000         0.0000000000
      60134000.0000000000         0.0000000000
      60221000.0000000000         0.0000000000
      60307000.0000000000         0.0000000000
      60394000.0000000000         0.0000000000
      60480000.0000000000         0.0000000000
      60566000.0000000000         0.0000000000
      60653000.0000000000         0.0000000000
      60739000.0000000000         0.0000000000
      60826000.0000000000         0.0000000000
      60912000.0000000000         0.0000000000
      60998000.0000000000         0.0000000000
      61085000.0000000000         0.0000000000
      61171000.0000000000         0.0000000000
      61258000.0000000000         0.0000000000
      61344000.0000000000         0.0000000000
      61430000.0000000000         0.0000000000
      61517000.0000000000         0.0000000000
      61603000.0000000000         0.0000000000
      61690000.0000000000         0.0000000000
      61776000.0000000000         0.0000000000
      61862000.0000000000         0.0000000000
      61949000.0000000000         0.0000000000
      62035000.0000000000         0.0000000000
      62122000.0000000000         0.0000000000
      62208000.0000000000         0.0000000000
      62294000.0000000000         0.0000000000
      62381000.0000000000         0.0000000000
      62467000.0000000000         0.0000000000
      62554000.0000000000         0.0000000000
      62640000.0000000000         0.0000000000
      62726000.0000000000         0.0000000000
      62813000.0000000000         0.0000000000
      62899000.0000000000         0.0000000000
      62986000.0000000000         0.0000000000
      63072000.0000000000         0.0000000000
      63158000.0000000000         0.0000000000
      63245000.0000000000         0.0000000000
      63331000.0000000000         0.0000000000
      63418000.0000000000         0.0000000000
      63504000.0000000000         0.0000000000
      63590000.0000000000         0.0000000000
      63677000.0000000000         0.0000000000
      63763000.0000000000         0.0000000000
      63850000.0000000000         0.0000000000
      63936000.0000000000         0.0000000000
      64022000.0000000000         0.0000000000
      64109000.0000000000         0.0000000000
      64195000.0000000000         0.0000000000
      64282000.0000000000         0.0000000000
      64368000.0000000000         0.0000000000
      64454000.0000000000         0.0000000000
      64541000.0000000000         0.0000000000
      64627000.0000000000         0.0000000000
      64714000.0000000000         0.0000000000
      64800000.0000000000         0.0000000000
      64886000.0000000000         0.0000000000
      64973000.0000000000         0.0000000000
      65059000.0000000000         0.0000000000
      65146000.0000000000         0.0000000000
      65232000.0000000000         0.0000000000
      65318000.0000000000         0.0000000000
      65405000.0000000000         0.0000000000
      65491000.0000000000         0.0000000000



            AREAL INFILTRATION RATE
 READING ON UNIT   19 WITH FORMAT: (10F4.0)            

            1           2           3           4           5           6           7           8           9          10
 ........................................................................................................................
   1   1.0000E-10  2.0000E-10   0.000       0.000       0.000       0.000       0.000       0.000       0.000       0.000    
   2   2.0000E-10  1.0000E-10  2.0000E-10   0.000       0.000      8.0000E-10  8.0000E-10  5.0000E-10   0.000       0.000    
   3    0.000      5.0000E-10  1.0000E-10  1.0000E-10  8.0000E-10  8.0000E-10  5.0000E-10  5.0000E-10   0.000       0.000    
   4   8.0000E-10  5.0000E-10  1.0000E-10  1.0000E-10  1.0000E-10  1.0000E-10  1.0000E-10  1.0000E-10  2.0000E-10   0.000    
   5   8.0000E-10  5.0000E-10  1.0000E-10  1.0000E-10  1.0000E-10  1.0000E-10  1.0000E-10  1.0000E-10  1.0000E-10  1.0000E-10
   6   8.0000E-10  5.0000E-10  5.0000E-10  2.0000E-10  2.0000E-10  1.0000E-10  1.0000E-10  1.0000E-10  1.0000E-10  5.0000E-10
   7   8.0000E-10  5.0000E-10  5.0000E-10  2.0000E-10  2.0000E-10  1.0000E-10  1.0000E-10  2.0000E-10  2.0000E-10   0.000    
   8    0.000      5.0000E-10  5.0000E-10  2.0000E-10  2.0000E-10  1.0000E-10  1.0000E-10  2.0000E-10  5.0000E-10   0.000    
   9    0.000      5.0000E-10  5.0000E-10  2.0000E-10  2.0000E-10  1.0000E-10  1.0000E-10  2.0000E-10  5.0000E-10   0.000    
  10    0.000      5.0000E-10  5.0000E-10  2.0000E-10  2.0000E-10  1.0000E-10  1.0000E-10  2.0000E-10  5.0000E-10  8.0000E-10
  11    0.000      1.0000E-10  1.0000E-10  1.0000E-10  1.0000E-10  1.0000E-10  1.0000E-10  2.0000E-10  5.0000E-10   0.000    
  12   1.0000E-10  1.0000E-10  1.0000E-10  1.0000E-10  1.0000E-10  1.0000E-10  1.0000E-10  1.0000E-10  2.0000E-10   0.000    
  13   1.0000E-10  1.0000E-10  2.0000E-10  2.0000E-10  2.0000E-10  2.0000E-10  2.0000E-10  1.0000E-10  1.0000E-10   0.000    
  14    0.000      2.0000E-10  5.0000E-10  5.0000E-10  5.0000E-10  5.0000E-10  5.0000E-10  2.0000E-10  1.0000E-10   0.000    
  15    0.000       0.000      8.0000E-10  8.0000E-10  8.0000E-10  8.0000E-10   0.000       0.000       0.000       0.000    

                  ET RATE =  1.000000E-08

      ET EXTINCTION DEPTH =   5.00000    

 EXTINCTION WATER CONTENT =  7.000000E-02
 # AWU well list

 PROCESSING WELL LIST

 LAYER   ROW   COL   MAX STRESS RATE         
 --------------------------------------------
      1      1      6      4      -10.00    
      2      1      6      5      -10.00    
      3      1      7      4      -10.00    
      4      1      7      5      -10.00    
      5      1      8      4      -10.00    
      6      1      8      5      -10.00    

 FINISHED READING WELL LIST

      6 WELLS

 PROCESSING AWU STRESS PERIOD DATA
 # AWU stress period

 READING AWU STRESS PERIOD DATA

 READING IRRIGATION STREAM

 READING IRRIGATION WELL

 READING SUPPLEMENTAL WEL

 END PROCESSING AWU STRESS PERIOD DATA OPTIONS
 
 SOLVING FOR HEAD 
                                                   Max.-Head-Change                         Max.-Flux-Residual
  Residual-Control   Outer-Iter.   Inner-Iter.     Column Row Layer    Maximum-Head-Change  Column Row Layer    Maximum-Flux-Residual          L2-NORM 
          0                 1           6             2    2     1      -0.2647755603E+02       3    3    1        -0.3343270791E+01      0.9154263424E+01
          0                 2           6             1    1     1      -0.3274896442E+02       1   13    1        -0.1711826791E+02      0.1781680713E+02
          0                 3           5             6   13     1      -0.1413776341E+01       6   13    1        -0.2334720320E+01      0.2909519550E+01
          0                 4           5             5   13     1      -0.2502496929E+00       5   13    1        -0.5010726931E+00      0.5347605584E+00
          0                 5           4             5   14     1       0.4745110741E-01       5   13    1         0.2603947412E-01      0.4236272885E-01
          0                 6           2             5   14     1      -0.1861716743E-02       6   10    1        -0.1372924737E-02      0.3212587123E-02
          0                 7           1             5   14     1       0.2945757694E-04       4   13    1         0.9655447866E-04      0.1619721106E-03

    ------------------------------------------------
       NWT REQUIRED            7 OUTER ITERATIONS 
       AND A TOTAL OF         29 INNER ITERATIONS.
    ------------------------------------------------

 OUTPUT CONTROL FOR STRESS PERIOD    1   TIME STEP    1
    PRINT BUDGET
    SAVE BUDGET
 UBDSV2 SAVING "   CONSTANT HEAD" ON UNIT 102 AT TIME STEP  1, STRESS PERIOD   1
 UBDSV1 SAVING "FLOW RIGHT FACE " ON UNIT 102 AT TIME STEP  1, STRESS PERIOD   1
 UBDSV1 SAVING "FLOW FRONT FACE " ON UNIT 102 AT TIME STEP  1, STRESS PERIOD   1

  HEAD DEP BOUNDS   PERIOD    1   STEP     1
 BOUNDARY      1   LAYER   1   ROW    13   COL     1   RATE   -0.284480    
 BOUNDARY      2   LAYER   1   ROW    14   COL     9   RATE    0.285742    



 STREAM LISTING     PERIOD      1   STEP        1

 LAYER ROW COL. STREAM  RCH.  FLOW INTO     FLOW TO   FLOW OUT OF   OVRLND.     DIRECT     STREAM       STREAM     STREAM     STREAM   STREAMBED  STREAMBED
                SEG.NO.  NO.  STRM. RCH.    AQUIFER    STRM. RCH.    RUNOFF     PRECIP       ET          HEAD       DEPTH      WIDTH   CONDCTNC.   GRADIENT

   1    1    1     1     1    5.0000E+00  9.9080E-02   4.9009E+00  0.000E+00  0.000E+00  0.000E+00  1.09378E+03  7.365E-01  5.893E+00  2.652E-02  1.246E+00
   1    2    2     1     2    4.9009E+00  1.5199E-01   4.7489E+00  0.000E+00  0.000E+00  0.000E+00  1.08879E+03  7.320E-01  5.818E+00  4.072E-02  1.244E+00
   1    3    3     1     3    4.7489E+00  1.2820E-01   4.6207E+00  0.000E+00  0.000E+00  0.000E+00  1.08315E+03  7.269E-01  5.733E+00  3.440E-02  1.242E+00
   1    3    4     1     4    4.6207E+00  1.1689E-01   4.5038E+00  0.000E+00  0.000E+00  0.000E+00  1.07813E+03  7.223E-01  5.658E+00  3.140E-02  1.241E+00
   1    4    5     2     1    2.5038E+00  2.5694E-01   2.2469E+00  0.000E+00  0.000E+00  0.000E+00  1.07223E+03  2.942E-01  1.200E+01  7.800E-02  1.098E+00
   1    5    6     2     2    2.2469E+00  1.9662E-01   2.0503E+00  0.000E+00  0.000E+00  0.000E+00  1.06679E+03  2.770E-01  1.200E+01  6.000E-02  1.092E+00
   1    6    6     2     3    2.0503E+00  1.9569E-01   1.8546E+00  0.000E+00  0.000E+00  0.000E+00  1.06205E+03  2.615E-01  1.200E+01  6.000E-02  1.087E+00
   1    7    6     2     4    1.8546E+00  1.9473E-01   1.6599E+00  0.000E+00  0.000E+00  0.000E+00  1.05732E+03  2.455E-01  1.200E+01  6.000E-02  1.082E+00
   1    8    6     2     5    1.6599E+00  1.9373E-01   1.4661E+00  0.000E+00  0.000E+00  0.000E+00  1.05259E+03  2.288E-01  1.200E+01  6.000E-02  1.076E+00
   1    3    5     3     1    2.0000E+00  2.8252E-01   1.7175E+00  0.000E+00  0.000E+00  0.000E+00  1.07555E+03  1.909E+00  9.636E+00  7.227E-02  1.955E+00
   1    3    6     3     2    1.7175E+00  2.4905E-01   1.4684E+00  0.000E+00  0.000E+00  0.000E+00  1.07264E+03  1.727E+00  8.909E+00  6.682E-02  1.864E+00
   1    3    7     3     3    1.4684E+00  1.9718E-01   1.2712E+00  0.000E+00  0.000E+00  0.000E+00  1.06987E+03  1.555E+00  8.218E+00  5.547E-02  1.777E+00
   1    4    8     3     4    1.2712E+00  2.2567E-01   1.0456E+00  0.000E+00  0.000E+00  0.000E+00  1.06682E+03  1.364E+00  7.455E+00  6.709E-02  1.682E+00
   1    5    8     3     5    1.0456E+00  1.5790E-01   8.8768E-01  0.000E+00  0.000E+00  0.000E+00  1.06362E+03  1.164E+00  6.655E+00  4.991E-02  1.582E+00
   1    6    8     3     6    8.8768E-01  5.5980E-02   8.3170E-01  0.000E+00  0.000E+00  0.000E+00  1.06158E+03  1.036E+00  6.145E+00  1.844E-02  1.518E+00
   1    5   10     4     1    1.0000E+01  9.0919E-02   9.9091E+00  0.000E+00  0.000E+00  0.000E+00  1.07836E+03  6.368E-01  1.000E+01  2.500E-02  1.212E+00
   1    5    9     4     2    9.9091E+00  1.8158E-01   9.7275E+00  0.000E+00  0.000E+00  0.000E+00  1.07154E+03  6.315E-01  1.000E+01  5.000E-02  1.211E+00
   1    6    8     4     3    9.7275E+00  1.2689E-01   9.6006E+00  0.000E+00  0.000E+00  0.000E+00  1.06381E+03  6.256E-01  1.000E+01  3.500E-02  1.209E+00
   1    6    8     5     1    1.0432E+01  2.2686E-01   1.0205E+01  0.000E+00  0.000E+00  0.000E+00  1.05868E+03  6.790E-01  1.542E+01  6.166E-02  1.226E+00
   1    7    7     5     2    1.0205E+01  2.7894E-01   9.9265E+00  0.000E+00  0.000E+00  0.000E+00  1.05417E+03  6.732E-01  1.519E+01  7.594E-02  1.224E+00
   1    8    7     5     3    9.9265E+00  1.9221E-01   9.7343E+00  0.000E+00  0.000E+00  0.000E+00  1.04992E+03  6.676E-01  1.497E+01  5.241E-02  1.223E+00
   1    8    6     5     4    9.7343E+00  1.3577E-01   9.5985E+00  0.000E+00  0.000E+00  0.000E+00  1.04691E+03  6.637E-01  1.482E+01  3.706E-02  1.221E+00
   1    9    6     6     1    1.1065E+01  2.2465E-01   1.0840E+01  0.000E+00  0.000E+00  0.000E+00  1.04347E+03  7.442E-01  1.200E+01  6.000E-02  1.248E+00
   1   10    7     6     2    1.0840E+01  2.2410E-01   1.0616E+01  0.000E+00  0.000E+00  0.000E+00  1.03892E+03  7.350E-01  1.200E+01  6.000E-02  1.245E+00
   1   11    7     6     3    1.0616E+01  2.2354E-01   1.0392E+01  0.000E+00  0.000E+00  0.000E+00  1.03436E+03  7.257E-01  1.200E+01  6.000E-02  1.242E+00
   1   12    7     6     4    1.0392E+01  2.2299E-01   1.0169E+01  0.000E+00  0.000E+00  0.000E+00  1.02981E+03  7.165E-01  1.200E+01  6.000E-02  1.239E+00
   1   13    7     6     5    1.0169E+01 -9.5300E-02   1.0265E+01  0.000E+00  0.000E+00  0.000E+00  1.02662E+03  7.138E-01  1.200E+01  2.400E-01 -1.324E-01
   1   14    9     7     1    1.5000E+02  1.3356E+00   1.4866E+02  0.000E+00  0.000E+00  0.000E+00  1.03987E+03  2.288E+00  5.529E+01  5.593E-01  7.960E-01
   1   13    8     7     2    1.4866E+02  1.8417E+00   1.4682E+02  0.000E+00  0.000E+00  0.000E+00  1.03478E+03  2.279E+00  5.526E+01  6.148E-01  9.986E-01
   1   13    7     7     3    1.4682E+02  1.4909E+00   1.4533E+02  0.000E+00  0.000E+00  0.000E+00  1.02969E+03  2.270E+00  5.522E+01  5.584E-01  8.899E-01
   1   13    6     8     1    1.5560E+02  8.6429E-01   1.5473E+02  0.000E+00  0.000E+00  0.000E+00  1.02473E+03  2.853E+00  4.137E+01  4.215E-01  6.834E-01
   1   13    5     8     2    1.5473E+02  1.5160E-01   1.5458E+02  0.000E+00  0.000E+00  0.000E+00  1.01847E+03  2.849E+00  4.132E+01  4.210E-01  1.200E-01
   1   13    4     8     3    1.5458E+02 -2.4372E+00   1.5702E+02  0.000E+00  0.000E+00  0.000E+00  1.01223E+03  2.857E+00  4.143E+01  4.222E+00 -1.924E-01
   1   13    3     8     4    1.5702E+02 -3.5513E+00   1.6057E+02  0.000E+00  0.000E+00  0.000E+00  1.00600E+03  2.878E+00  4.173E+01  4.252E+00 -2.784E-01
   1   13    2     8     5    1.6057E+02 -2.4850E+00   1.6305E+02  0.000E+00  0.000E+00  0.000E+00  9.99773E+02  2.898E+00  4.202E+01  4.282E+00 -1.934E-01
   1   13    1     8     6    1.6305E+02 -1.8046E+00   1.6486E+02  0.000E+00  0.000E+00  0.000E+00  9.94787E+02  2.912E+00  4.223E+01  2.582E+00 -2.330E-01
   1    8    6     9     1    0.0000E+00  0.0000E+00   0.0000E+00  0.000E+00  0.000E+00  0.000E+00  1.07875E+03  0.000E+00  4.000E+00  0.000E+00  1.000E+00
   1    8    5     9     2    0.0000E+00  0.0000E+00   0.0000E+00  0.000E+00  0.000E+00  0.000E+00  1.07825E+03  0.000E+00  4.000E+00  0.000E+00  1.000E+00



 UBDSV3 SAVING "           GW ET" ON UNIT  61 AT TIME STEP  1, STRESS PERIOD   1
 UBDSV3 SAVING "    UZF RECHARGE" ON UNIT  61 AT TIME STEP  1, STRESS PERIOD   1
 UBDSV3 SAVING " SURFACE LEAKAGE" ON UNIT  61 AT TIME STEP  1, STRESS PERIOD   1
 UBDSV3 SAVING "       HORT+DUNN" ON UNIT  61 AT TIME STEP  1, STRESS PERIOD   1
 UBDSV3 SAVING "  STORAGE CHANGE" ON UNIT  61 AT TIME STEP  1, STRESS PERIOD   1


UNSATURATED ZONE PACKAGE VOLUMETRIC BUDGET FOR  TIME STEP     1 STRESS PERIOD    1
  ------------------------------------------------------------------------------



     CUMULATIVE VOLUMES      L**3       RATES FOR THIS TIME STEP      L**3/T
     ------------------                 ------------------------

           IN:                                      IN:
           ---                                      ---
        INFILTRATION =       73224.0000          INFILTRATION =           0.8475

          OUT:                                     OUT:
          ----                                     ----
              UZF ET =       0.0000E+00                UZF ET =       0.0000E+00
        UZF RECHARGE =       73224.0000          UZF RECHARGE =           0.8475

            IN - OUT =       0.0000E+00              IN - OUT =       0.0000E+00

          STORAGE:                                 STORAGE:
          --------                                 --------
      STORAGE CHANGE =       0.0000E+00        STORAGE CHANGE =       0.0000E+00

 PERCENT DISCREPANCY IS DIFFERENCE BETWEEN IN-OUT MINUS CHANGE IN STORAGE
 DIVIDED BY THE AVERAGE OF IN AND OUT TIMES 100

 PERCENT DISCREPANCY =           0.00     PERCENT DISCREPANCY =           0.00






1
  VOLUMETRIC BUDGET FOR ENTIRE MODEL AT END OF TIME STEP    1, STRESS PERIOD   1
  ------------------------------------------------------------------------------

     CUMULATIVE VOLUMES      L**3       RATES FOR THIS TIME STEP      L**3/T
     ------------------                 ------------------------

           IN:                                      IN:
           ---                                      ---
             STORAGE     =           0.0000               STORAGE     =           0.0000
       CONSTANT HEAD     =           0.0000         CONSTANT HEAD     =           0.0000
     HEAD DEP BOUNDS     =       24688.1094       HEAD DEP BOUNDS     =           0.2857
      STREAM LEAKAGE     =      908468.3750        STREAM LEAKAGE     =          10.5147
        UZF RECHARGE     =       73223.9531          UZF RECHARGE     =           0.8475
               GW ET     =           0.0000                 GW ET     =           0.0000
     SURFACE LEAKAGE     =           0.0000       SURFACE LEAKAGE     =           0.0000

                TOTAL IN =     1006380.4375                  TOTAL IN =          11.6479

          OUT:                                     OUT:
          ----                                     ----
             STORAGE     =           0.0000               STORAGE     =           0.0000
       CONSTANT HEAD     =           0.0000         CONSTANT HEAD     =           0.0000
     HEAD DEP BOUNDS     =       24579.1133       HEAD DEP BOUNDS     =           0.2845
      STREAM LEAKAGE     =      896270.3750        STREAM LEAKAGE     =          10.3735
        UZF RECHARGE     =           0.0000          UZF RECHARGE     =           0.0000
               GW ET     =       85530.3672                 GW ET     =           0.9899
     SURFACE LEAKAGE     =           0.0000       SURFACE LEAKAGE     =           0.0000

               TOTAL OUT =     1006379.8750                 TOTAL OUT =          11.6479

                IN - OUT =           0.5625                  IN - OUT =       6.6757E-06

     PERCENT DISCREPANCY =           0.00         PERCENT DISCREPANCY =           0.00






         TIME SUMMARY AT END OF TIME STEP    1 IN STRESS PERIOD    1
                    SECONDS     MINUTES      HOURS       DAYS        YEARS
                    -----------------------------------------------------------
   TIME STEP LENGTH  86400.      1440.0      24.000      1.0000     2.73785E-03
 STRESS PERIOD TIME  86400.      1440.0      24.000      1.0000     2.73785E-03
         TOTAL TIME  86400.      1440.0      24.000      1.0000     2.73785E-03
1
1
                            STRESS PERIOD NO.    2, LENGTH =   2628000.    
                            -----------------------------------------------

                              NUMBER OF TIME STEPS =    30

                               MULTIPLIER FOR DELT =     1.000

                            INITIAL TIME STEP SIZE =   87600.00    

 REUSING NON-PARAMETER GHB CELLS FROM LAST STRESS PERIOD

      2 GHB CELLS

 REUSING STREAM SEGMENT DATA FROM LAST STRESS PERIOD



            AREAL INFILTRATION RATE
 READING ON UNIT   19 WITH FORMAT: (10F4.0)            

            1           2           3           4           5           6           7           8           9          10
 ........................................................................................................................
   1   1.0000E-10  2.0000E-10   0.000       0.000       0.000       0.000       0.000       0.000       0.000       0.000    
   2   2.0000E-10  1.0000E-10  2.0000E-10   0.000       0.000      8.0000E-10  8.0000E-10  5.0000E-10   0.000       0.000    
   3    0.000      5.0000E-10  1.0000E-10  1.0000E-10  8.0000E-10  8.0000E-10  5.0000E-10  5.0000E-10   0.000       0.000    
   4   8.0000E-10  5.0000E-10  1.0000E-10  1.0000E-10  1.0000E-10  1.0000E-10  1.0000E-10  1.0000E-10  2.0000E-10   0.000    
   5   8.0000E-10  5.0000E-10  1.0000E-10  1.0000E-10  1.0000E-10  1.0000E-10  1.0000E-10  1.0000E-10  1.0000E-10  1.0000E-10
   6   8.0000E-10  5.0000E-10  5.0000E-10  2.0000E-10  2.0000E-10  1.0000E-10  1.0000E-10  1.0000E-10  1.0000E-10  5.0000E-10
   7   8.0000E-10  5.0000E-10  5.0000E-10  2.0000E-10  2.0000E-10  1.0000E-10  1.0000E-10  2.0000E-10  2.0000E-10   0.000    
   8    0.000      5.0000E-10  5.0000E-10  2.0000E-10  2.0000E-10  1.0000E-10  1.0000E-10  2.0000E-10  5.0000E-10   0.000    
   9    0.000      5.0000E-10  5.0000E-10  2.0000E-10  2.0000E-10  1.0000E-10  1.0000E-10  2.0000E-10  5.0000E-10   0.000    
  10    0.000      5.0000E-10  5.0000E-10  2.0000E-10  2.0000E-10  1.0000E-10  1.0000E-10  2.0000E-10  5.0000E-10  8.0000E-10
  11    0.000      1.0000E-10  1.0000E-10  1.0000E-10  1.0000E-10  1.0000E-10  1.0000E-10  2.0000E-10  5.0000E-10   0.000    
  12   1.0000E-10  1.0000E-10  1.0000E-10  1.0000E-10  1.0000E-10  1.0000E-10  1.0000E-10  1.0000E-10  2.0000E-10   0.000    
  13   1.0000E-10  1.0000E-10  2.0000E-10  2.0000E-10  2.0000E-10  2.0000E-10  2.0000E-10  1.0000E-10  1.0000E-10   0.000    
  14    0.000      2.0000E-10  5.0000E-10  5.0000E-10  5.0000E-10  5.0000E-10  5.0000E-10  2.0000E-10  1.0000E-10   0.000    
  15    0.000       0.000      8.0000E-10  8.0000E-10  8.0000E-10  8.0000E-10   0.000       0.000       0.000       0.000    

                  ET RATE =  1.000000E-10

 USING ET EXTINCTION DEPTH FROM PREVIOUS STRESS PERIOD. CURRENT PERIOD IS:       2

 USING EXTINCTION WATER CONTENT FROM PREVIOUS STRESS PERIOD. CURRENT PERIOD IS:       2

 PROCESSING AWU STRESS PERIOD DATA

 READING AWU STRESS PERIOD DATA

 READING IRRIGATION STREAM

 READING IRRIGATION WELL

 READING SUPPLEMENTAL WEL

 END PROCESSING AWU STRESS PERIOD DATA OPTIONS
 
 SOLVING FOR HEAD 
                                                   Max.-Head-Change                         Max.-Flux-Residual
  Residual-Control   Outer-Iter.   Inner-Iter.     Column Row Layer    Maximum-Head-Change  Column Row Layer    Maximum-Flux-Residual          L2-NORM 
          0                 1           2             4   13     1       0.1006156579E-01       4   13    1         0.5750687561E+00      0.1088378297E+01
          0                 2           2             7   13     1      -0.5256931232E-03       7   13    1        -0.2921013544E-01      0.3050875982E-01
          0                 3           1             7   13     1      -0.1721800985E-04       7   13    1        -0.9562031366E-03      0.1066552951E-02

    ------------------------------------------------
       NWT REQUIRED            3 OUTER ITERATIONS 
       AND A TOTAL OF          5 INNER ITERATIONS.
    ------------------------------------------------

 NO OUTPUT CONTROL FOR STRESS PERIOD    2   TIME STEP    1
 
 SOLVING FOR HEAD 
                                                   Max.-Head-Change                         Max.-Flux-Residual
  Residual-Control   Outer-Iter.   Inner-Iter.     Column Row Layer    Maximum-Head-Change  Column Row Layer    Maximum-Flux-Residual          L2-NORM 
          0                 1           2             4   13     1       0.9085939236E-02       4   13    1         0.5189280334E+00      0.1011026474E+01
          0                 2           1             6    2     1       0.7492018062E-04       1   13    1         0.3405551476E-02      0.9732116821E-02

    ------------------------------------------------
       NWT REQUIRED            2 OUTER ITERATIONS 
       AND A TOTAL OF          3 INNER ITERATIONS.
    ------------------------------------------------

 NO OUTPUT CONTROL FOR STRESS PERIOD    2   TIME STEP    2
 
 SOLVING FOR HEAD 
                                                   Max.-Head-Change                         Max.-Flux-Residual
  Residual-Control   Outer-Iter.   Inner-Iter.     Column Row Layer    Maximum-Head-Change  Column Row Layer    Maximum-Flux-Residual          L2-NORM 
          0                 1           2             4   13     1       0.8201835765E-02       4   13    1         0.4680729802E+00      0.9435712673E+00
          0                 2           1             6    2     1       0.7492058618E-04       1   13    1         0.3178469913E-02      0.9525774735E-02

    ------------------------------------------------
       NWT REQUIRED            2 OUTER ITERATIONS 
       AND A TOTAL OF          3 INNER ITERATIONS.
    ------------------------------------------------

 NO OUTPUT CONTROL FOR STRESS PERIOD    2   TIME STEP    3
 
 SOLVING FOR HEAD 
                                                   Max.-Head-Change                         Max.-Flux-Residual
  Residual-Control   Outer-Iter.   Inner-Iter.     Column Row Layer    Maximum-Head-Change  Column Row Layer    Maximum-Flux-Residual          L2-NORM 
          0                 1           2             4   13     1       0.7410393612E-02       4   13    1         0.4225657273E+00      0.8829443096E+00
          0                 2           1             6    2     1       0.7490964763E-04       1   13    1         0.2969385587E-02      0.1010109824E-01

    ------------------------------------------------
       NWT REQUIRED            2 OUTER ITERATIONS 
       AND A TOTAL OF          3 INNER ITERATIONS.
    ------------------------------------------------

 NO OUTPUT CONTROL FOR STRESS PERIOD    2   TIME STEP    4
 
 SOLVING FOR HEAD 
                                                   Max.-Head-Change                         Max.-Flux-Residual
  Residual-Control   Outer-Iter.   Inner-Iter.     Column Row Layer    Maximum-Head-Change  Column Row Layer    Maximum-Flux-Residual          L2-NORM 
          0                 1           2             4   13     1       0.6701658705E-02       4   13    1         0.3818309869E+00      0.8283558752E+00
          0                 2           1             6    2     1       0.7490841658E-04       1   13    1         0.2774356460E-02      0.1062941045E-01

    ------------------------------------------------
       NWT REQUIRED            2 OUTER ITERATIONS 
       AND A TOTAL OF          3 INNER ITERATIONS.
    ------------------------------------------------

 NO OUTPUT CONTROL FOR STRESS PERIOD    2   TIME STEP    5
 
 SOLVING FOR HEAD 
                                                   Max.-Head-Change                         Max.-Flux-Residual
  Residual-Control   Outer-Iter.   Inner-Iter.     Column Row Layer    Maximum-Head-Change  Column Row Layer    Maximum-Flux-Residual          L2-NORM 
          0                 1           2             4   13     1       0.6066585182E-02       4   13    1         0.3453453683E+00      0.7791815724E+00
          0                 2           1             6    2     1       0.7490628634E-04       1   13    1         0.2592166635E-02      0.1050707403E-01

    ------------------------------------------------
       NWT REQUIRED            2 OUTER ITERATIONS 
       AND A TOTAL OF          3 INNER ITERATIONS.
    ------------------------------------------------

 NO OUTPUT CONTROL FOR STRESS PERIOD    2   TIME STEP    6
 
 SOLVING FOR HEAD 
                                                   Max.-Head-Change                         Max.-Flux-Residual
  Residual-Control   Outer-Iter.   Inner-Iter.     Column Row Layer    Maximum-Head-Change  Column Row Layer    Maximum-Flux-Residual          L2-NORM 
          0                 1           2             4   13     1       0.5497336057E-02       4   13    1         0.3126570015E+00      0.7349364404E+00
          0                 2           1             6    2     1       0.7490336662E-04       1   13    1         0.2426768850E-02      0.1037867760E-01

    ------------------------------------------------
       NWT REQUIRED            2 OUTER ITERATIONS 
       AND A TOTAL OF          3 INNER ITERATIONS.
    ------------------------------------------------

 NO OUTPUT CONTROL FOR STRESS PERIOD    2   TIME STEP    7
 
 SOLVING FOR HEAD 
                                                   Max.-Head-Change                         Max.-Flux-Residual
  Residual-Control   Outer-Iter.   Inner-Iter.     Column Row Layer    Maximum-Head-Change  Column Row Layer    Maximum-Flux-Residual          L2-NORM 
          0                 1           2             1   13     1       0.5107065467E-02       4   13    1         0.2833470781E+00      0.6951098469E+00
          0                 2           1             6    2     1       0.7488908502E-04       1   13    1         0.2271335363E-02      0.1026616800E-01

    ------------------------------------------------
       NWT REQUIRED            2 OUTER ITERATIONS 
       AND A TOTAL OF          3 INNER ITERATIONS.
    ------------------------------------------------

 NO OUTPUT CONTROL FOR STRESS PERIOD    2   TIME STEP    8
 
 SOLVING FOR HEAD 
                                                   Max.-Head-Change                         Max.-Flux-Residual
  Residual-Control   Outer-Iter.   Inner-Iter.     Column Row Layer    Maximum-Head-Change  Column Row Layer    Maximum-Flux-Residual          L2-NORM 
          0                 1           2             1   13     1       0.4857925239E-02       1   13    1         0.2646479631E+00      0.6592451265E+00
          0                 2           1             6    2     1       0.7488450727E-04       1   13    1         0.2126458928E-02      0.1017183072E-01

    ------------------------------------------------
       NWT REQUIRED            2 OUTER ITERATIONS 
       AND A TOTAL OF          3 INNER ITERATIONS.
    ------------------------------------------------

 NO OUTPUT CONTROL FOR STRESS PERIOD    2   TIME STEP    9
 
 SOLVING FOR HEAD 
                                                   Max.-Head-Change                         Max.-Flux-Residual
  Residual-Control   Outer-Iter.   Inner-Iter.     Column Row Layer    Maximum-Head-Change  Column Row Layer    Maximum-Flux-Residual          L2-NORM 
          0                 1           2             1   13     1       0.4619604399E-02       1   13    1         0.2517041315E+00      0.6269369061E+00
          0                 2           1             6    2     1       0.7487908215E-04       6    2    1         0.1999002914E-02      0.1009092647E-01

    ------------------------------------------------
       NWT REQUIRED            2 OUTER ITERATIONS 
       AND A TOTAL OF          3 INNER ITERATIONS.
    ------------------------------------------------

 NO OUTPUT CONTROL FOR STRESS PERIOD    2   TIME STEP   10
 
 SOLVING FOR HEAD 
                                                   Max.-Head-Change                         Max.-Flux-Residual
  Residual-Control   Outer-Iter.   Inner-Iter.     Column Row Layer    Maximum-Head-Change  Column Row Layer    Maximum-Flux-Residual          L2-NORM 
          0                 1           2             1   13     1       0.4391793144E-02       1   13    1         0.2393273187E+00      0.5978070000E+00
          0                 2           1             6    2     1       0.7486231851E-04       6    2    1         0.1998576565E-02      0.9999203753E-02

    ------------------------------------------------
       NWT REQUIRED            2 OUTER ITERATIONS 
       AND A TOTAL OF          3 INNER ITERATIONS.
    ------------------------------------------------

 NO OUTPUT CONTROL FOR STRESS PERIOD    2   TIME STEP   11
 
 SOLVING FOR HEAD 
                                                   Max.-Head-Change                         Max.-Flux-Residual
  Residual-Control   Outer-Iter.   Inner-Iter.     Column Row Layer    Maximum-Head-Change  Column Row Layer    Maximum-Flux-Residual          L2-NORM 
          0                 1           2             1   13     1       0.4174170346E-02       1   13    1         0.2275006075E+00      0.5715357751E+00
          0                 2           1             6    2     1       0.7485524705E-04       6    2    1         0.1998411019E-02      0.9919074276E-02

    ------------------------------------------------
       NWT REQUIRED            2 OUTER ITERATIONS 
       AND A TOTAL OF          3 INNER ITERATIONS.
    ------------------------------------------------

 NO OUTPUT CONTROL FOR STRESS PERIOD    2   TIME STEP   12
 
 SOLVING FOR HEAD 
                                                   Max.-Head-Change                         Max.-Flux-Residual
  Residual-Control   Outer-Iter.   Inner-Iter.     Column Row Layer    Maximum-Head-Change  Column Row Layer    Maximum-Flux-Residual          L2-NORM 
          0                 1           2             1   13     1       0.3966369288E-02       1   13    1         0.2162045461E+00      0.5478077220E+00
          0                 2           1             6    2     1       0.7484731945E-04       6    2    1         0.1998222388E-02      0.9834271394E-02

    ------------------------------------------------
       NWT REQUIRED            2 OUTER ITERATIONS 
       AND A TOTAL OF          3 INNER ITERATIONS.
    ------------------------------------------------

 NO OUTPUT CONTROL FOR STRESS PERIOD    2   TIME STEP   13
 
 SOLVING FOR HEAD 
                                                   Max.-Head-Change                         Max.-Flux-Residual
  Residual-Control   Outer-Iter.   Inner-Iter.     Column Row Layer    Maximum-Head-Change  Column Row Layer    Maximum-Flux-Residual          L2-NORM 
          0                 1           2             1   13     1       0.3768039257E-02       1   13    1         0.2054204685E+00      0.5263649181E+00
          0                 2           1             6    2     1       0.7482800905E-04       6    2    1         0.1997729325E-02      0.9758052723E-02

    ------------------------------------------------
       NWT REQUIRED            2 OUTER ITERATIONS 
       AND A TOTAL OF          3 INNER ITERATIONS.
    ------------------------------------------------

 NO OUTPUT CONTROL FOR STRESS PERIOD    2   TIME STEP   14
 
 SOLVING FOR HEAD 
                                                   Max.-Head-Change                         Max.-Flux-Residual
  Residual-Control   Outer-Iter.   Inner-Iter.     Column Row Layer    Maximum-Head-Change  Column Row Layer    Maximum-Flux-Residual          L2-NORM 
          0                 1           2             1   13     1       0.3578850189E-02       1   13    1         0.1951308291E+00      0.5069540088E+00
          0                 2           1             6    2     1       0.7481838864E-04       6    2    1         0.1997495898E-02      0.9695296759E-02

    ------------------------------------------------
       NWT REQUIRED            2 OUTER ITERATIONS 
       AND A TOTAL OF          3 INNER ITERATIONS.
    ------------------------------------------------

 NO OUTPUT CONTROL FOR STRESS PERIOD    2   TIME STEP   15
 
 SOLVING FOR HEAD 
                                                   Max.-Head-Change                         Max.-Flux-Residual
  Residual-Control   Outer-Iter.   Inner-Iter.     Column Row Layer    Maximum-Head-Change  Column Row Layer    Maximum-Flux-Residual          L2-NORM 
          0                 1           2             2    2     1       0.3453657957E-02       1   13    1         0.1853184320E+00      0.4893610690E+00
          0                 2           1             6    2     1       0.7480791258E-04       6    2    1         0.1997239326E-02      0.9649208906E-02

    ------------------------------------------------
       NWT REQUIRED            2 OUTER ITERATIONS 
       AND A TOTAL OF          3 INNER ITERATIONS.
    ------------------------------------------------

 NO OUTPUT CONTROL FOR STRESS PERIOD    2   TIME STEP   16
 
 SOLVING FOR HEAD 
                                                   Max.-Head-Change                         Max.-Flux-Residual
  Residual-Control   Outer-Iter.   Inner-Iter.     Column Row Layer    Maximum-Head-Change  Column Row Layer    Maximum-Flux-Residual          L2-NORM 
          0                 1           2             2    2     1       0.3427216004E-02       2    2    1         0.1791879950E+00      0.4733948515E+00
          0                 2           1             6    2     1       0.7478604617E-04       6    2    1         0.1996678350E-02      0.9625342616E-02

    ------------------------------------------------
       NWT REQUIRED            2 OUTER ITERATIONS 
       AND A TOTAL OF          3 INNER ITERATIONS.
    ------------------------------------------------

 NO OUTPUT CONTROL FOR STRESS PERIOD    2   TIME STEP   17
 
 SOLVING FOR HEAD 
                                                   Max.-Head-Change                         Max.-Flux-Residual
  Residual-Control   Outer-Iter.   Inner-Iter.     Column Row Layer    Maximum-Head-Change  Column Row Layer    Maximum-Flux-Residual          L2-NORM 
          0                 1           2             2    2     1       0.3401110926E-02       2    2    1         0.1778138044E+00      0.4588854602E+00
          0                 2           1             6    2     1       0.7477384786E-04       6    2    1         0.1996376761E-02      0.9591392391E-02

    ------------------------------------------------
       NWT REQUIRED            2 OUTER ITERATIONS 
       AND A TOTAL OF          3 INNER ITERATIONS.
    ------------------------------------------------

 NO OUTPUT CONTROL FOR STRESS PERIOD    2   TIME STEP   18
 
 SOLVING FOR HEAD 
                                                   Max.-Head-Change                         Max.-Flux-Residual
  Residual-Control   Outer-Iter.   Inner-Iter.     Column Row Layer    Maximum-Head-Change  Column Row Layer    Maximum-Flux-Residual          L2-NORM 
          0                 1           2             2    2     1       0.3375422858E-02       2    2    1         0.1764616100E+00      0.4456697272E+00
          0                 2           1             6    2     1       0.7476073235E-04       6    2    1         0.1996051489E-02      0.9551026903E-02

    ------------------------------------------------
       NWT REQUIRED            2 OUTER ITERATIONS 
       AND A TOTAL OF          3 INNER ITERATIONS.
    ------------------------------------------------

 NO OUTPUT CONTROL FOR STRESS PERIOD    2   TIME STEP   19
 
 SOLVING FOR HEAD 
                                                   Max.-Head-Change                         Max.-Flux-Residual
  Residual-Control   Outer-Iter.   Inner-Iter.     Column Row Layer    Maximum-Head-Change  Column Row Layer    Maximum-Flux-Residual          L2-NORM 
          0                 1           2             2    2     1       0.3350144191E-02       2    2    1         0.1751310093E+00      0.4336222993E+00
          0                 2           1             6    2     1       0.7474687578E-04       6    2    1         0.1995703603E-02      0.9520726981E-02

    ------------------------------------------------
       NWT REQUIRED            2 OUTER ITERATIONS 
       AND A TOTAL OF          3 INNER ITERATIONS.
    ------------------------------------------------

 NO OUTPUT CONTROL FOR STRESS PERIOD    2   TIME STEP   20
 
 SOLVING FOR HEAD 
                                                   Max.-Head-Change                         Max.-Flux-Residual
  Residual-Control   Outer-Iter.   Inner-Iter.     Column Row Layer    Maximum-Head-Change  Column Row Layer    Maximum-Flux-Residual          L2-NORM 
          0                 1           2             2    2     1       0.3325267824E-02       2    2    1         0.1738216090E+00      0.4226227808E+00
          0                 2           1             6    2     1       0.7472157291E-04       6    2    1         0.1995050541E-02      0.9495513656E-02

    ------------------------------------------------
       NWT REQUIRED            2 OUTER ITERATIONS 
       AND A TOTAL OF          3 INNER ITERATIONS.
    ------------------------------------------------

 NO OUTPUT CONTROL FOR STRESS PERIOD    2   TIME STEP   21
 
 SOLVING FOR HEAD 
                                                   Max.-Head-Change                         Max.-Flux-Residual
  Residual-Control   Outer-Iter.   Inner-Iter.     Column Row Layer    Maximum-Head-Change  Column Row Layer    Maximum-Flux-Residual          L2-NORM 
          0                 1           2             2    2     1       0.3300786478E-02       2    2    1         0.1725330430E+00      0.4125492951E+00
          0                 2           1             6    2     1       0.7470592353E-04       6    2    1         0.1994656769E-02      0.9472792553E-02

    ------------------------------------------------
       NWT REQUIRED            2 OUTER ITERATIONS 
       AND A TOTAL OF          3 INNER ITERATIONS.
    ------------------------------------------------

 NO OUTPUT CONTROL FOR STRESS PERIOD    2   TIME STEP   22
 
 SOLVING FOR HEAD 
                                                   Max.-Head-Change                         Max.-Flux-Residual
  Residual-Control   Outer-Iter.   Inner-Iter.     Column Row Layer    Maximum-Head-Change  Column Row Layer    Maximum-Flux-Residual          L2-NORM 
          0                 1           2             2    2     1       0.3276605531E-02       2    2    1         0.1712603791E+00      0.4033090012E+00
          0                 2           1             6    2     1       0.7468940196E-04       6    2    1         0.1994238917E-02      0.9453229474E-02

    ------------------------------------------------
       NWT REQUIRED            2 OUTER ITERATIONS 
       AND A TOTAL OF          3 INNER ITERATIONS.
    ------------------------------------------------

 NO OUTPUT CONTROL FOR STRESS PERIOD    2   TIME STEP   23
 
 SOLVING FOR HEAD 
                                                   Max.-Head-Change                         Max.-Flux-Residual
  Residual-Control   Outer-Iter.   Inner-Iter.     Column Row Layer    Maximum-Head-Change  Column Row Layer    Maximum-Flux-Residual          L2-NORM 
          0                 1           2             2    2     1       0.3252806862E-02       2    2    1         0.1700078172E+00      0.3948116816E+00
          0                 2           1             6    2     1       0.7466146158E-04       6    2    1         0.1993516233E-02      0.9434478222E-02

    ------------------------------------------------
       NWT REQUIRED            2 OUTER ITERATIONS 
       AND A TOTAL OF          3 INNER ITERATIONS.
    ------------------------------------------------

 NO OUTPUT CONTROL FOR STRESS PERIOD    2   TIME STEP   24
 
 SOLVING FOR HEAD 
                                                   Max.-Head-Change                         Max.-Flux-Residual
  Residual-Control   Outer-Iter.   Inner-Iter.     Column Row Layer    Maximum-Head-Change  Column Row Layer    Maximum-Flux-Residual          L2-NORM 
          0                 1           2             2    2     1       0.3229383293E-02       2    2    1         0.1687750597E+00      0.3869808090E+00
          0                 2           1             6    2     1       0.7464321728E-04       6    2    1         0.1993052198E-02      0.9418839289E-02

    ------------------------------------------------
       NWT REQUIRED            2 OUTER ITERATIONS 
       AND A TOTAL OF          3 INNER ITERATIONS.
    ------------------------------------------------

 NO OUTPUT CONTROL FOR STRESS PERIOD    2   TIME STEP   25
 
 SOLVING FOR HEAD 
                                                   Max.-Head-Change                         Max.-Flux-Residual
  Residual-Control   Outer-Iter.   Inner-Iter.     Column Row Layer    Maximum-Head-Change  Column Row Layer    Maximum-Flux-Residual          L2-NORM 
          0                 1           2             2    2     1       0.3206327973E-02       2    2    1         0.1675617240E+00      0.3797544523E+00
          0                 2           1             6    2     1       0.7462409178E-04       6    2    1         0.1992565200E-02      0.9404889313E-02

    ------------------------------------------------
       NWT REQUIRED            2 OUTER ITERATIONS 
       AND A TOTAL OF          3 INNER ITERATIONS.
    ------------------------------------------------

 NO OUTPUT CONTROL FOR STRESS PERIOD    2   TIME STEP   26
 
 SOLVING FOR HEAD 
                                                   Max.-Head-Change                         Max.-Flux-Residual
  Residual-Control   Outer-Iter.   Inner-Iter.     Column Row Layer    Maximum-Head-Change  Column Row Layer    Maximum-Flux-Residual          L2-NORM 
          0                 1           2             2    2     1       0.3183547588E-02       2    2    1         0.1663629038E+00      0.3730614050E+00
          0                 2           1             6    2     1       0.7459355501E-04       6    2    1         0.1991773149E-02      0.9391990720E-02

    ------------------------------------------------
       NWT REQUIRED            2 OUTER ITERATIONS 
       AND A TOTAL OF          3 INNER ITERATIONS.
    ------------------------------------------------

 NO OUTPUT CONTROL FOR STRESS PERIOD    2   TIME STEP   27
 
 SOLVING FOR HEAD 
                                                   Max.-Head-Change                         Max.-Flux-Residual
  Residual-Control   Outer-Iter.   Inner-Iter.     Column Row Layer    Maximum-Head-Change  Column Row Layer    Maximum-Flux-Residual          L2-NORM 
          0                 1           2             2    2     1       0.3161123465E-02       2    2    1         0.1651828720E+00      0.3668567419E+00
          0                 2           1             6    2     1       0.7457270896E-04       6    2    1         0.1991239922E-02      0.9380687979E-02

    ------------------------------------------------
       NWT REQUIRED            2 OUTER ITERATIONS 
       AND A TOTAL OF          3 INNER ITERATIONS.
    ------------------------------------------------

 NO OUTPUT CONTROL FOR STRESS PERIOD    2   TIME STEP   28
 
 SOLVING FOR HEAD 
                                                   Max.-Head-Change                         Max.-Flux-Residual
  Residual-Control   Outer-Iter.   Inner-Iter.     Column Row Layer    Maximum-Head-Change  Column Row Layer    Maximum-Flux-Residual          L2-NORM 
          0                 1           2             2    2     1       0.3139136553E-02       2    2    1         0.1640258432E+00      0.3610901851E+00
          0                 2           1             6    2     1       0.7455104011E-04       6    2    1         0.1990683576E-02      0.9370712133E-02

    ------------------------------------------------
       NWT REQUIRED            2 OUTER ITERATIONS 
       AND A TOTAL OF          3 INNER ITERATIONS.
    ------------------------------------------------

 NO OUTPUT CONTROL FOR STRESS PERIOD    2   TIME STEP   29
 
 SOLVING FOR HEAD 
                                                   Max.-Head-Change                         Max.-Flux-Residual
  Residual-Control   Outer-Iter.   Inner-Iter.     Column Row Layer    Maximum-Head-Change  Column Row Layer    Maximum-Flux-Residual          L2-NORM 
          0                 1           2             2    2     1       0.3117318298E-02       2    2    1         0.1628778015E+00      0.3557081608E+00
          0                 2           1             6    2     1       0.7451798359E-04       6    2    1         0.1989823772E-02      0.9350059909E-02

    ------------------------------------------------
       NWT REQUIRED            2 OUTER ITERATIONS 
       AND A TOTAL OF          3 INNER ITERATIONS.
    ------------------------------------------------

 NO OUTPUT CONTROL FOR STRESS PERIOD    2   TIME STEP   30



 STREAM LISTING     PERIOD      2   STEP       30

 LAYER ROW COL. STREAM  RCH.  FLOW INTO     FLOW TO   FLOW OUT OF   OVRLND.     DIRECT     STREAM       STREAM     STREAM     STREAM   STREAMBED  STREAMBED
                SEG.NO.  NO.  STRM. RCH.    AQUIFER    STRM. RCH.    RUNOFF     PRECIP       ET          HEAD       DEPTH      WIDTH   CONDCTNC.   GRADIENT

   1    1    1     1     1    2.2000E+01  2.3088E-01   2.1769E+01  0.000E+00  0.000E+00  0.000E+00  1.09418E+03  1.132E+00  1.242E+01  5.588E-02  1.377E+00
   1    2    2     1     2    2.1769E+01  3.5689E-01   2.1412E+01  0.000E+00  0.000E+00  0.000E+00  1.08919E+03  1.127E+00  1.235E+01  8.648E-02  1.376E+00
   1    3    3     1     3    2.1412E+01  3.0372E-01   2.1109E+01  0.000E+00  0.000E+00  0.000E+00  1.08354E+03  1.121E+00  1.228E+01  7.369E-02  1.374E+00
   1    3    4     1     4    2.1109E+01  2.7914E-01   2.0829E+01  0.000E+00  0.000E+00  0.000E+00  1.07852E+03  1.117E+00  1.222E+01  6.781E-02  1.372E+00
   1    4    5     2     1    1.8829E+01  3.1306E-01   1.8516E+01  0.000E+00  0.000E+00  0.000E+00  1.07295E+03  1.014E+00  1.200E+01  7.800E-02  1.338E+00
   1    5    6     2     2    1.8516E+01  2.4027E-01   1.8276E+01  0.000E+00  0.000E+00  0.000E+00  1.06751E+03  1.005E+00  1.200E+01  6.000E-02  1.335E+00
   1    6    6     2     3    1.8276E+01  2.3980E-01   1.8036E+01  0.000E+00  0.000E+00  0.000E+00  1.06279E+03  9.967E-01  1.200E+01  6.000E-02  1.332E+00
   1    7    6     2     4    1.8036E+01  2.3933E-01   1.7797E+01  0.000E+00  0.000E+00  0.000E+00  1.05806E+03  9.888E-01  1.200E+01  6.000E-02  1.330E+00
   1    8    6     2     5    1.7797E+01  2.3885E-01   1.7558E+01  0.000E+00  0.000E+00  0.000E+00  1.05334E+03  9.808E-01  1.200E+01  6.000E-02  1.327E+00
   1    3    5     3     1    2.0000E+00  2.8252E-01   1.7175E+00  0.000E+00  0.000E+00  0.000E+00  1.07555E+03  1.909E+00  9.636E+00  7.227E-02  1.955E+00
   1    3    6     3     2    1.7175E+00  2.4905E-01   1.4684E+00  0.000E+00  0.000E+00  0.000E+00  1.07264E+03  1.727E+00  8.909E+00  6.682E-02  1.864E+00
   1    3    7     3     3    1.4684E+00  1.9718E-01   1.2712E+00  0.000E+00  0.000E+00  0.000E+00  1.06987E+03  1.555E+00  8.218E+00  5.547E-02  1.777E+00
   1    4    8     3     4    1.2712E+00  2.2567E-01   1.0456E+00  0.000E+00  0.000E+00  0.000E+00  1.06682E+03  1.364E+00  7.455E+00  6.709E-02  1.682E+00
   1    5    8     3     5    1.0456E+00  1.5790E-01   8.8768E-01  0.000E+00  0.000E+00  0.000E+00  1.06362E+03  1.164E+00  6.655E+00  4.991E-02  1.582E+00
   1    6    8     3     6    8.8768E-01  5.5980E-02   8.3170E-01  0.000E+00  0.000E+00  0.000E+00  1.06158E+03  1.036E+00  6.145E+00  1.844E-02  1.518E+00
   1    5   10     4     1    1.0000E+01  9.0919E-02   9.9091E+00  0.000E+00  0.000E+00  0.000E+00  1.07836E+03  6.368E-01  1.000E+01  2.500E-02  1.212E+00
   1    5    9     4     2    9.9091E+00  1.8158E-01   9.7275E+00  0.000E+00  0.000E+00  0.000E+00  1.07154E+03  6.315E-01  1.000E+01  5.000E-02  1.211E+00
   1    6    8     4     3    9.7275E+00  1.2689E-01   9.6006E+00  0.000E+00  0.000E+00  0.000E+00  1.06381E+03  6.256E-01  1.000E+01  3.500E-02  1.209E+00
   1    6    8     5     1    1.0432E+01  2.2686E-01   1.0205E+01  0.000E+00  0.000E+00  0.000E+00  1.05868E+03  6.790E-01  1.542E+01  6.166E-02  1.226E+00
   1    7    7     5     2    1.0205E+01  2.7894E-01   9.9265E+00  0.000E+00  0.000E+00  0.000E+00  1.05417E+03  6.732E-01  1.519E+01  7.594E-02  1.224E+00
   1    8    7     5     3    9.9265E+00  1.9221E-01   9.7343E+00  0.000E+00  0.000E+00  0.000E+00  1.04992E+03  6.676E-01  1.497E+01  5.241E-02  1.223E+00
   1    8    6     5     4    9.7343E+00  1.3577E-01   9.5985E+00  0.000E+00  0.000E+00  0.000E+00  1.04691E+03  6.637E-01  1.482E+01  3.706E-02  1.221E+00
   1    9    6     6     1    2.7157E+01  2.5677E-01   2.6900E+01  0.000E+00  0.000E+00  0.000E+00  1.04401E+03  1.280E+00  1.200E+01  6.000E-02  1.427E+00
   1   10    7     6     2    2.6900E+01  2.5634E-01   2.6643E+01  0.000E+00  0.000E+00  0.000E+00  1.03945E+03  1.272E+00  1.200E+01  6.000E-02  1.424E+00
   1   11    7     6     3    2.6643E+01  2.5590E-01   2.6388E+01  0.000E+00  0.000E+00  0.000E+00  1.03490E+03  1.265E+00  1.200E+01  6.000E-02  1.422E+00
   1   12    7     6     4    2.6388E+01  2.5546E-01   2.6132E+01  0.000E+00  0.000E+00  0.000E+00  1.03035E+03  1.258E+00  1.200E+01  6.000E-02  1.419E+00
   1   13    7     6     5    2.6132E+01  2.2780E-03   2.6130E+01  0.000E+00  0.000E+00  0.000E+00  1.02716E+03  1.254E+00  1.200E+01  2.400E-02  3.164E-02
   1   14    9     7     1    1.5000E+02  1.3358E+00   1.4866E+02  0.000E+00  0.000E+00  0.000E+00  1.03987E+03  2.288E+00  5.529E+01  5.593E-01  7.961E-01
   1   13    8     7     2    1.4866E+02  1.8385E+00   1.4683E+02  0.000E+00  0.000E+00  0.000E+00  1.03478E+03  2.279E+00  5.526E+01  6.148E-01  9.969E-01
   1   13    7     7     3    1.4683E+02  1.4641E+00   1.4536E+02  0.000E+00  0.000E+00  0.000E+00  1.02969E+03  2.270E+00  5.522E+01  5.585E-01  8.739E-01
   1   13    6     8     1    1.7149E+02  9.1667E-01   1.7057E+02  0.000E+00  0.000E+00  0.000E+00  1.02483E+03  2.959E+00  4.290E+01  4.372E-01  6.989E-01
   1   13    5     8     2    1.7057E+02  1.6299E-01   1.7041E+02  0.000E+00  0.000E+00  0.000E+00  1.01858E+03  2.955E+00  4.285E+01  4.367E-01  1.244E-01
   1   13    4     8     3    1.7041E+02 -2.5207E+00   1.7293E+02  0.000E+00  0.000E+00  0.000E+00  1.01234E+03  2.963E+00  4.296E+01  4.378E+00 -1.919E-01
   1   13    3     8     4    1.7293E+02 -3.6632E+00   1.7660E+02  0.000E+00  0.000E+00  0.000E+00  1.00611E+03  2.983E+00  4.325E+01  4.408E+00 -2.770E-01
   1   13    2     8     5    1.7660E+02 -2.5308E+00   1.7913E+02  0.000E+00  0.000E+00  0.000E+00  9.99878E+02  3.003E+00  4.354E+01  4.437E+00 -1.901E-01
   1   13    1     8     6    1.7913E+02 -1.8988E+00   1.8103E+02  0.000E+00  0.000E+00  0.000E+00  9.94892E+02  3.017E+00  4.374E+01  2.674E+00 -2.367E-01
   1    8    6     9     1    0.0000E+00  0.0000E+00   0.0000E+00  0.000E+00  0.000E+00  0.000E+00  1.07875E+03  0.000E+00  4.000E+00  0.000E+00  1.000E+00
   1    8    5     9     2    0.0000E+00  0.0000E+00   0.0000E+00  0.000E+00  0.000E+00  0.000E+00  1.07825E+03  0.000E+00  4.000E+00  0.000E+00  1.000E+00





UNSATURATED ZONE PACKAGE VOLUMETRIC BUDGET FOR  TIME STEP    30 STRESS PERIOD    2
  ------------------------------------------------------------------------------



     CUMULATIVE VOLUMES      L**3       RATES FOR THIS TIME STEP      L**3/T
     ------------------                 ------------------------

           IN:                                      IN:
           ---                                      ---
        INFILTRATION =     2300454.0000          INFILTRATION =           0.8475

          OUT:                                     OUT:
          ----                                     ----
              UZF ET =        7693.8266                UZF ET =           0.0057
        UZF RECHARGE =     1106348.3826          UZF RECHARGE =           0.3418

            IN - OUT =     1186411.7908              IN - OUT =           0.5000

          STORAGE:                                 STORAGE:
          --------                                 --------
      STORAGE CHANGE =     1186411.7859        STORAGE CHANGE =           0.5000

 PERCENT DISCREPANCY IS DIFFERENCE BETWEEN IN-OUT MINUS CHANGE IN STORAGE
 DIVIDED BY THE AVERAGE OF IN AND OUT TIMES 100

 PERCENT DISCREPANCY =           0.00     PERCENT DISCREPANCY =          -0.00






1
  VOLUMETRIC BUDGET FOR ENTIRE MODEL AT END OF TIME STEP   30, STRESS PERIOD   2
  ------------------------------------------------------------------------------

     CUMULATIVE VOLUMES      L**3       RATES FOR THIS TIME STEP      L**3/T
     ------------------                 ------------------------

           IN:                                      IN:
           ---                                      ---
               AWU WELLS =           0.0000                 AWU WELLS =           0.0000
      DIVERSION SEGMENTS =           0.0000        DIVERSION SEGMENTS =           0.0000
           GW IRRIGATION =           0.0000             GW IRRIGATION =           0.0000
           SW IRRIGATION =           0.0000             SW IRRIGATION =           0.0000
        SYSTEM LOSSES GW =           0.0000          SYSTEM LOSSES GW =           0.0000
        SYSTEM LOSSES SW =           0.0000          SYSTEM LOSSES SW =           0.0000

                TOTAL IN =           0.0000                  TOTAL IN =           0.0000

          OUT:                                     OUT:
          ----                                     ----
               AWU WELLS =           0.0000                 AWU WELLS =           0.0000
      DIVERSION SEGMENTS =           0.0000        DIVERSION SEGMENTS =           0.0000
           GW IRRIGATION =           0.0000             GW IRRIGATION =           0.0000
           SW IRRIGATION =           0.0000             SW IRRIGATION =           0.0000
        SYSTEM LOSSES GW =           0.0000          SYSTEM LOSSES GW =           0.0000
        SYSTEM LOSSES SW =           0.0000          SYSTEM LOSSES SW =           0.0000

               TOTAL OUT =           0.0000                 TOTAL OUT =           0.0000

                IN - OUT =           0.0000                  IN - OUT =           0.0000

     PERCENT DISCREPANCY =           0.00         PERCENT DISCREPANCY =           0.00



1
  VOLUMETRIC BUDGET FOR ENTIRE MODEL AT END OF TIME STEP   30, STRESS PERIOD   2
  ------------------------------------------------------------------------------

     CUMULATIVE VOLUMES      L**3       RATES FOR THIS TIME STEP      L**3/T
     ------------------                 ------------------------

           IN:                                      IN:
           ---                                      ---
             STORAGE     =     1467040.0000               STORAGE     =           0.4948
       CONSTANT HEAD     =           0.0000         CONSTANT HEAD     =           0.0000
     HEAD DEP BOUNDS     =      775636.9375       HEAD DEP BOUNDS     =           0.2858
      STREAM LEAKAGE     =    31471744.0000        STREAM LEAKAGE     =          11.5882
        UZF RECHARGE     =     1106348.3750          UZF RECHARGE     =           0.3418
               GW ET     =           0.0000                 GW ET     =           0.0000
     SURFACE LEAKAGE     =           0.0000       SURFACE LEAKAGE     =           0.0000
           AWU WELLS     =           0.0000             AWU WELLS     =           0.0000

                TOTAL IN =    34820768.0000                  TOTAL IN =          12.7106

          OUT:                                     OUT:
          ----                                     ----
             STORAGE     =     6392107.0000               STORAGE     =           1.8008
       CONSTANT HEAD     =           0.0000         CONSTANT HEAD     =           0.0000
     HEAD DEP BOUNDS     =      779559.6250       HEAD DEP BOUNDS     =           0.2889
      STREAM LEAKAGE     =    27545228.0000        STREAM LEAKAGE     =          10.6135
        UZF RECHARGE     =           0.0000          UZF RECHARGE     =           0.0000
               GW ET     =      111859.0469                 GW ET     =       1.0047E-02
     SURFACE LEAKAGE     =           0.0000       SURFACE LEAKAGE     =           0.0000
           AWU WELLS     =           0.0000             AWU WELLS     =           0.0000

               TOTAL OUT =    34828756.0000                 TOTAL OUT =          12.7132

                IN - OUT =       -7988.0000                  IN - OUT =      -2.5768E-03

     PERCENT DISCREPANCY =          -0.02         PERCENT DISCREPANCY =          -0.02






         TIME SUMMARY AT END OF TIME STEP   30 IN STRESS PERIOD    2
                    SECONDS     MINUTES      HOURS       DAYS        YEARS
                    -----------------------------------------------------------
   TIME STEP LENGTH  87600.      1460.0      24.333      1.0139     2.77588E-03
 STRESS PERIOD TIME 2.62800E+06  43800.      730.00      30.417     8.32763E-02
         TOTAL TIME 2.71440E+06  45240.      754.00      31.417     8.60141E-02
1
1
                            STRESS PERIOD NO.    3, LENGTH =   2628000.    
                            -----------------------------------------------

                              NUMBER OF TIME STEPS =    30

                               MULTIPLIER FOR DELT =     1.000

                            INITIAL TIME STEP SIZE =   87600.00    

 REUSING NON-PARAMETER GHB CELLS FROM LAST STRESS PERIOD

      2 GHB CELLS

 REUSING STREAM SEGMENT DATA FROM LAST STRESS PERIOD



            AREAL INFILTRATION RATE
 READING ON UNIT   19 WITH FORMAT: (10F4.0)            

            1           2           3           4           5           6           7           8           9          10
 ........................................................................................................................
   1   1.0000E-10  2.0000E-10   0.000       0.000       0.000       0.000       0.000       0.000       0.000       0.000    
   2   2.0000E-10  1.0000E-10  2.0000E-10   0.000       0.000      8.0000E-10  8.0000E-10  5.0000E-10   0.000       0.000    
   3    0.000      5.0000E-10  1.0000E-10  1.0000E-10  8.0000E-10  8.0000E-10  5.0000E-10  5.0000E-10   0.000       0.000    
   4   8.0000E-10  5.0000E-10  1.0000E-10  1.0000E-10  1.0000E-10  1.0000E-10  1.0000E-10  1.0000E-10  2.0000E-10   0.000    
   5   8.0000E-10  5.0000E-10  1.0000E-10  1.0000E-10  1.0000E-10  1.0000E-10  1.0000E-10  1.0000E-10  1.0000E-10  1.0000E-10
   6   8.0000E-10  5.0000E-10  5.0000E-10  2.0000E-10  2.0000E-10  1.0000E-10  1.0000E-10  1.0000E-10  1.0000E-10  5.0000E-10
   7   8.0000E-10  5.0000E-10  5.0000E-10  2.0000E-10  2.0000E-10  1.0000E-10  1.0000E-10  2.0000E-10  2.0000E-10   0.000    
   8    0.000      5.0000E-10  5.0000E-10  2.0000E-10  2.0000E-10  1.0000E-10  1.0000E-10  2.0000E-10  5.0000E-10   0.000    
   9    0.000      5.0000E-10  5.0000E-10  2.0000E-10  2.0000E-10  1.0000E-10  1.0000E-10  2.0000E-10  5.0000E-10   0.000    
  10    0.000      5.0000E-10  5.0000E-10  2.0000E-10  2.0000E-10  1.0000E-10  1.0000E-10  2.0000E-10  5.0000E-10  8.0000E-10
  11    0.000      1.0000E-10  1.0000E-10  1.0000E-10  1.0000E-10  1.0000E-10  1.0000E-10  2.0000E-10  5.0000E-10   0.000    
  12   1.0000E-10  1.0000E-10  1.0000E-10  1.0000E-10  1.0000E-10  1.0000E-10  1.0000E-10  1.0000E-10  2.0000E-10   0.000    
  13   1.0000E-10  1.0000E-10  2.0000E-10  2.0000E-10  2.0000E-10  2.0000E-10  2.0000E-10  1.0000E-10  1.0000E-10   0.000    
  14    0.000      2.0000E-10  5.0000E-10  5.0000E-10  5.0000E-10  5.0000E-10  5.0000E-10  2.0000E-10  1.0000E-10   0.000    
  15    0.000       0.000      8.0000E-10  8.0000E-10  8.0000E-10  8.0000E-10   0.000       0.000       0.000       0.000    

                  ET RATE =  1.000000E-10

 USING ET EXTINCTION DEPTH FROM PREVIOUS STRESS PERIOD. CURRENT PERIOD IS:       3

 USING EXTINCTION WATER CONTENT FROM PREVIOUS STRESS PERIOD. CURRENT PERIOD IS:       3

 PROCESSING AWU STRESS PERIOD DATA

 READING AWU STRESS PERIOD DATA

 READING IRRIGATION STREAM

 READING IRRIGATION WELL

 READING SUPPLEMENTAL WEL

 END PROCESSING AWU STRESS PERIOD DATA OPTIONS
 
 SOLVING FOR HEAD 
                                                   Max.-Head-Change                         Max.-Flux-Residual
  Residual-Control   Outer-Iter.   Inner-Iter.     Column Row Layer    Maximum-Head-Change  Column Row Layer    Maximum-Flux-Residual          L2-NORM 
          0                 1           2             4   13     1       0.4395824867E-02       4   13    1         0.2507378804E+00      0.6426094766E+00
          0                 2           1             6    2     1       0.7449465501E-04       2    2    1         0.2099553360E-02      0.1009770648E-01

    ------------------------------------------------
       NWT REQUIRED            2 OUTER ITERATIONS 
       AND A TOTAL OF          3 INNER ITERATIONS.
    ------------------------------------------------

 NO OUTPUT CONTROL FOR STRESS PERIOD    3   TIME STEP    1
 
 SOLVING FOR HEAD 
                                                   Max.-Head-Change                         Max.-Flux-Residual
  Residual-Control   Outer-Iter.   Inner-Iter.     Column Row Layer    Maximum-Head-Change  Column Row Layer    Maximum-Flux-Residual          L2-NORM 
          0                 1           2             4   13     1       0.7971809641E-02       4   13    1         0.4566988690E+00      0.9897869886E+00
          0                 2           1             6    2     1       0.7447045838E-04       1   13    1         0.3001768856E-02      0.1118975982E-01

    ------------------------------------------------
       NWT REQUIRED            2 OUTER ITERATIONS 
       AND A TOTAL OF          3 INNER ITERATIONS.
    ------------------------------------------------

 NO OUTPUT CONTROL FOR STRESS PERIOD    3   TIME STEP    2
 
 SOLVING FOR HEAD 
                                                   Max.-Head-Change                         Max.-Flux-Residual
  Residual-Control   Outer-Iter.   Inner-Iter.     Column Row Layer    Maximum-Head-Change  Column Row Layer    Maximum-Flux-Residual          L2-NORM 
          0                 1           2             2   13     1       0.7177651939E-02       4   13    1         0.4105657620E+00      0.9317972857E+00
          0                 2           1             3    4     1       0.7605221962E-04       1   13    1         0.2794220597E-02      0.1109280465E-01

    ------------------------------------------------
       NWT REQUIRED            2 OUTER ITERATIONS 
       AND A TOTAL OF          3 INNER ITERATIONS.
    ------------------------------------------------

 NO OUTPUT CONTROL FOR STRESS PERIOD    3   TIME STEP    3
 
 SOLVING FOR HEAD 
                                                   Max.-Head-Change                         Max.-Flux-Residual
  Residual-Control   Outer-Iter.   Inner-Iter.     Column Row Layer    Maximum-Head-Change  Column Row Layer    Maximum-Flux-Residual          L2-NORM 
          0                 1           2             2   13     1       0.6585802537E-02       2   13    1         0.3712761241E+00      0.8803545025E+00
          0                 2           1             3    4     1       0.7906452926E-04       1   13    1         0.2602510143E-02      0.1101872412E-01

    ------------------------------------------------
       NWT REQUIRED            2 OUTER ITERATIONS 
       AND A TOTAL OF          3 INNER ITERATIONS.
    ------------------------------------------------

 NO OUTPUT CONTROL FOR STRESS PERIOD    3   TIME STEP    4
 
 SOLVING FOR HEAD 
                                                   Max.-Head-Change                         Max.-Flux-Residual
  Residual-Control   Outer-Iter.   Inner-Iter.     Column Row Layer    Maximum-Head-Change  Column Row Layer    Maximum-Flux-Residual          L2-NORM 
          0                 1           2             2   13     1       0.6043544537E-02       2   13    1         0.3406518368E+00      0.8347297252E+00
          0                 2           1             3    4     1       0.8196265296E-04       2    2    1         0.2560284087E-02      0.1096327257E-01

    ------------------------------------------------
       NWT REQUIRED            2 OUTER ITERATIONS 
       AND A TOTAL OF          3 INNER ITERATIONS.
    ------------------------------------------------

 NO OUTPUT CONTROL FOR STRESS PERIOD    3   TIME STEP    5
 
 SOLVING FOR HEAD 
                                                   Max.-Head-Change                         Max.-Flux-Residual
  Residual-Control   Outer-Iter.   Inner-Iter.     Column Row Layer    Maximum-Head-Change  Column Row Layer    Maximum-Flux-Residual          L2-NORM 
          0                 1           2             2   13     1       0.5546865173E-02       2   13    1         0.3126037080E+00      0.7942834600E+00
          0                 2           1             3    4     1       0.8474893750E-04       2    2    1         0.2543163721E-02      0.1092289743E-01

    ------------------------------------------------
       NWT REQUIRED            2 OUTER ITERATIONS 
       AND A TOTAL OF          3 INNER ITERATIONS.
    ------------------------------------------------

 NO OUTPUT CONTROL FOR STRESS PERIOD    3   TIME STEP    6
 
 SOLVING FOR HEAD 
                                                   Max.-Head-Change                         Max.-Flux-Residual
  Residual-Control   Outer-Iter.   Inner-Iter.     Column Row Layer    Maximum-Head-Change  Column Row Layer    Maximum-Flux-Residual          L2-NORM 
          0                 1           2             2    2     1       0.5245727571E-02       2   13    1         0.2869060492E+00      0.7584226576E+00
          0                 2           1             3    4     1       0.8748256517E-04       2    2    1         0.2526309411E-02      0.1089677257E-01

    ------------------------------------------------
       NWT REQUIRED            2 OUTER ITERATIONS 
       AND A TOTAL OF          3 INNER ITERATIONS.
    ------------------------------------------------

 NO OUTPUT CONTROL FOR STRESS PERIOD    3   TIME STEP    7
 
 SOLVING FOR HEAD 
                                                   Max.-Head-Change                         Max.-Flux-Residual
  Residual-Control   Outer-Iter.   Inner-Iter.     Column Row Layer    Maximum-Head-Change  Column Row Layer    Maximum-Flux-Residual          L2-NORM 
          0                 1           2             2    2     1       0.5208324150E-02       2    2    1         0.2721813115E+00      0.7266331374E+00
          0                 2           1             3    4     1       0.9005238736E-04       2    2    1         0.2509675482E-02      0.1088005645E-01

    ------------------------------------------------
       NWT REQUIRED            2 OUTER ITERATIONS 
       AND A TOTAL OF          3 INNER ITERATIONS.
    ------------------------------------------------

 NO OUTPUT CONTROL FOR STRESS PERIOD    3   TIME STEP    8
 
 SOLVING FOR HEAD 
                                                   Max.-Head-Change                         Max.-Flux-Residual
  Residual-Control   Outer-Iter.   Inner-Iter.     Column Row Layer    Maximum-Head-Change  Column Row Layer    Maximum-Flux-Residual          L2-NORM 
          0                 1           2             2    2     1       0.5171509555E-02       2    2    1         0.2702438202E+00      0.6984284600E+00
          0                 2           1             3    4     1       0.9257508413E-04       2    2    1         0.2493297040E-02      0.1087391661E-01

    ------------------------------------------------
       NWT REQUIRED            2 OUTER ITERATIONS 
       AND A TOTAL OF          3 INNER ITERATIONS.
    ------------------------------------------------

 NO OUTPUT CONTROL FOR STRESS PERIOD    3   TIME STEP    9
 
 SOLVING FOR HEAD 
                                                   Max.-Head-Change                         Max.-Flux-Residual
  Residual-Control   Outer-Iter.   Inner-Iter.     Column Row Layer    Maximum-Head-Change  Column Row Layer    Maximum-Flux-Residual          L2-NORM 
          0                 1           2             2    2     1       0.5135273104E-02       2    2    1         0.2683368210E+00      0.6733842919E+00
          0                 2           1             3    4     1       0.9499545221E-04       3    4    1         0.2522528366E-02      0.1085311468E-01

    ------------------------------------------------
       NWT REQUIRED            2 OUTER ITERATIONS 
       AND A TOTAL OF          3 INNER ITERATIONS.
    ------------------------------------------------

 NO OUTPUT CONTROL FOR STRESS PERIOD    3   TIME STEP   10
 
 SOLVING FOR HEAD 
                                                   Max.-Head-Change                         Max.-Flux-Residual
  Residual-Control   Outer-Iter.   Inner-Iter.     Column Row Layer    Maximum-Head-Change  Column Row Layer    Maximum-Flux-Residual          L2-NORM 
          0                 1           2             2    2     1       0.5099605094E-02       2    2    1         0.2664597604E+00      0.6511246348E+00
          0                 2           1             3    4     1       0.9737250982E-04       3    4    1         0.2586002389E-02      0.1082780402E-01

    ------------------------------------------------
       NWT REQUIRED            2 OUTER ITERATIONS 
       AND A TOTAL OF          3 INNER ITERATIONS.
    ------------------------------------------------

 NO OUTPUT CONTROL FOR STRESS PERIOD    3   TIME STEP   11
 
 SOLVING FOR HEAD 
                                                   Max.-Head-Change                         Max.-Flux-Residual
  Residual-Control   Outer-Iter.   Inner-Iter.     Column Row Layer    Maximum-Head-Change  Column Row Layer    Maximum-Flux-Residual          L2-NORM 
          0                 1           2             2    2     1       0.5064407529E-02       2    2    1         0.2646075864E+00      0.6313070844E+00
          0                 2           1             3    4     1       0.9959428473E-04       3    4    1         0.2645338149E-02      0.1084379225E-01

    ------------------------------------------------
       NWT REQUIRED            2 OUTER ITERATIONS 
       AND A TOTAL OF          3 INNER ITERATIONS.
    ------------------------------------------------

 NO OUTPUT CONTROL FOR STRESS PERIOD    3   TIME STEP   12
 
 SOLVING FOR HEAD 
                                                   Max.-Head-Change                         Max.-Flux-Residual
  Residual-Control   Outer-Iter.   Inner-Iter.     Column Row Layer    Maximum-Head-Change  Column Row Layer    Maximum-Flux-Residual          L2-NORM 
          0                 1           2             2    2     1       0.5029758878E-02       2    2    1         0.2627843189E+00      0.6136385008E+00
          0                 2           1             3    4     1       0.1017791338E-03       3    4    1         0.2703672173E-02      0.1089774152E-01
          0                 3           1             3    4     1       0.1163488136E-04       3    4    1         0.3104964534E-03      0.8333806179E-03

    ------------------------------------------------
       NWT REQUIRED            3 OUTER ITERATIONS 
       AND A TOTAL OF          4 INNER ITERATIONS.
    ------------------------------------------------

 NO OUTPUT CONTROL FOR STRESS PERIOD    3   TIME STEP   13
 
 SOLVING FOR HEAD 
                                                   Max.-Head-Change                         Max.-Flux-Residual
  Residual-Control   Outer-Iter.   Inner-Iter.     Column Row Layer    Maximum-Head-Change  Column Row Layer    Maximum-Flux-Residual          L2-NORM 
          0                 1           2             2    2     1       0.4995576880E-02       2    2    1         0.2609856619E+00      0.5978586871E+00
          0                 2           1             3    4     1       0.1038322303E-03       3    4    1         0.2758474485E-02      0.1091185143E-01
          0                 3           1             3    4     1       0.1186897979E-04       3    4    1         0.3167358129E-03      0.8476939136E-03

    ------------------------------------------------
       NWT REQUIRED            3 OUTER ITERATIONS 
       AND A TOTAL OF          4 INNER ITERATIONS.
    ------------------------------------------------

 NO OUTPUT CONTROL FOR STRESS PERIOD    3   TIME STEP   14
 
 SOLVING FOR HEAD 
                                                   Max.-Head-Change                         Max.-Flux-Residual
  Residual-Control   Outer-Iter.   Inner-Iter.     Column Row Layer    Maximum-Head-Change  Column Row Layer    Maximum-Flux-Residual          L2-NORM 
          0                 1           2             2    2     1       0.4962012618E-02       2    2    1         0.2592195828E+00      0.5837302349E+00
          0                 2           1             3    4     1       0.1057952823E-03       3    4    1         0.2810879126E-02      0.1092910955E-01
          0                 3           1             3    4     1       0.1209292047E-04       3    4    1         0.3227009583E-03      0.8575137935E-03

    ------------------------------------------------
       NWT REQUIRED            3 OUTER ITERATIONS 
       AND A TOTAL OF          4 INNER ITERATIONS.
    ------------------------------------------------

 NO OUTPUT CONTROL FOR STRESS PERIOD    3   TIME STEP   15
 
 SOLVING FOR HEAD 
                                                   Max.-Head-Change                         Max.-Flux-Residual
  Residual-Control   Outer-Iter.   Inner-Iter.     Column Row Layer    Maximum-Head-Change  Column Row Layer    Maximum-Flux-Residual          L2-NORM 
          0                 1           2             2    2     1       0.4928882186E-02       2    2    1         0.2574763767E+00      0.5710481171E+00
          0                 2           1             3    4     1       0.1076718595E-03       3    4    1         0.2860977064E-02      0.1095009496E-01
          0                 3           1             3    4     1       0.1230701352E-04       3    4    1         0.3284032590E-03      0.8673455777E-03

    ------------------------------------------------
       NWT REQUIRED            3 OUTER ITERATIONS 
       AND A TOTAL OF          4 INNER ITERATIONS.
    ------------------------------------------------

 NO OUTPUT CONTROL FOR STRESS PERIOD    3   TIME STEP   16
 
 SOLVING FOR HEAD 
                                                   Max.-Head-Change                         Max.-Flux-Residual
  Residual-Control   Outer-Iter.   Inner-Iter.     Column Row Layer    Maximum-Head-Change  Column Row Layer    Maximum-Flux-Residual          L2-NORM 
          0                 1           2             2    2     1       0.4896177112E-02       2    2    1         0.2557556376E+00      0.5596250999E+00
          0                 2           1             3    4     1       0.1094655291E-03       3    4    1         0.2908851915E-02      0.1097228986E-01
          0                 3           1             3    4     1       0.1251173866E-04       3    4    1         0.3338546159E-03      0.8768158847E-03

    ------------------------------------------------
       NWT REQUIRED            3 OUTER ITERATIONS 
       AND A TOTAL OF          4 INNER ITERATIONS.
    ------------------------------------------------

 NO OUTPUT CONTROL FOR STRESS PERIOD    3   TIME STEP   17
 
 SOLVING FOR HEAD 
                                                   Max.-Head-Change                         Max.-Flux-Residual
  Residual-Control   Outer-Iter.   Inner-Iter.     Column Row Layer    Maximum-Head-Change  Column Row Layer    Maximum-Flux-Residual          L2-NORM 
          0                 1           2             2    2     1       0.4864063183E-02       2    2    1         0.2540660345E+00      0.5493119837E+00
          0                 2           2             3    4     1       0.1112336011E-03       3    4    1         0.2956052319E-02      0.1099569231E-01
          0                 3           1             3    4     1       0.1271349474E-04       3    4    1         0.3392274444E-03      0.8860279461E-03

    ------------------------------------------------
       NWT REQUIRED            3 OUTER ITERATIONS 
       AND A TOTAL OF          5 INNER ITERATIONS.
    ------------------------------------------------

 NO OUTPUT CONTROL FOR STRESS PERIOD    3   TIME STEP   18
 
 SOLVING FOR HEAD 
                                                   Max.-Head-Change                         Max.-Flux-Residual
  Residual-Control   Outer-Iter.   Inner-Iter.     Column Row Layer    Maximum-Head-Change  Column Row Layer    Maximum-Flux-Residual          L2-NORM 
          0                 1           2             2    2     1       0.4832357114E-02       2    2    1         0.2523979334E+00      0.5399734872E+00
          0                 2           2             3    4     1       0.1129225014E-03       3    4    1         0.3001130622E-02      0.1102014466E-01
          0                 3           1             3    4     1       0.1290630534E-04       3    4    1         0.3443605372E-03      0.8949952134E-03

    ------------------------------------------------
       NWT REQUIRED            3 OUTER ITERATIONS 
       AND A TOTAL OF          5 INNER ITERATIONS.
    ------------------------------------------------

 NO OUTPUT CONTROL FOR STRESS PERIOD    3   TIME STEP   19
 
 SOLVING FOR HEAD 
                                                   Max.-Head-Change                         Max.-Flux-Residual
  Residual-Control   Outer-Iter.   Inner-Iter.     Column Row Layer    Maximum-Head-Change  Column Row Layer    Maximum-Flux-Residual          L2-NORM 
          0                 1           2             2    2     1       0.4801138075E-02       2    2    1         0.2507555124E+00      0.5314762096E+00
          0                 2           2             3    4     1       0.1145329444E-03       3    4    1         0.3044120883E-02      0.1104434128E-01
          0                 3           1             3    4     1       0.1309012270E-04       3    4    1         0.3492545686E-03      0.9035590058E-03

    ------------------------------------------------
       NWT REQUIRED            3 OUTER ITERATIONS 
       AND A TOTAL OF          5 INNER ITERATIONS.
    ------------------------------------------------

 NO OUTPUT CONTROL FOR STRESS PERIOD    3   TIME STEP   20
 
 SOLVING FOR HEAD 
                                                   Max.-Head-Change                         Max.-Flux-Residual
  Residual-Control   Outer-Iter.   Inner-Iter.     Column Row Layer    Maximum-Head-Change  Column Row Layer    Maximum-Flux-Residual          L2-NORM 
          0                 1           2             2    2     1       0.4770397019E-02       2    2    1         0.2491383121E+00      0.5237295851E+00
          0                 2           2             3    4     1       0.1160691077E-03       3    4    1         0.3085121612E-02      0.1106878446E-01
          0                 3           1             3    4     1       0.1326555259E-04       3    4    1         0.3539236569E-03      0.9118325970E-03

    ------------------------------------------------
       NWT REQUIRED            3 OUTER ITERATIONS 
       AND A TOTAL OF          5 INNER ITERATIONS.
    ------------------------------------------------

 NO OUTPUT CONTROL FOR STRESS PERIOD    3   TIME STEP   21
 
 SOLVING FOR HEAD 
                                                   Max.-Head-Change                         Max.-Flux-Residual
  Residual-Control   Outer-Iter.   Inner-Iter.     Column Row Layer    Maximum-Head-Change  Column Row Layer    Maximum-Flux-Residual          L2-NORM 
          0                 1           2             2    2     1       0.4740038890E-02       2    2    1         0.2475413013E+00      0.5166358406E+00
          0                 2           2             3    4     1       0.1175331377E-03       3    4    1         0.3124196489E-02      0.1109328244E-01
          0                 3           1             3    4     1       0.1343277308E-04       3    4    1         0.3583736119E-03      0.9198274934E-03

    ------------------------------------------------
       NWT REQUIRED            3 OUTER ITERATIONS 
       AND A TOTAL OF          5 INNER ITERATIONS.
    ------------------------------------------------

 NO OUTPUT CONTROL FOR STRESS PERIOD    3   TIME STEP   22
 
 SOLVING FOR HEAD 
                                                   Max.-Head-Change                         Max.-Flux-Residual
  Residual-Control   Outer-Iter.   Inner-Iter.     Column Row Layer    Maximum-Head-Change  Column Row Layer    Maximum-Flux-Residual          L2-NORM 
          0                 1           2             2    2     1       0.4710143001E-02       2    2    1         0.2459686824E+00      0.5101141234E+00
          0                 2           2             3    4     1       0.1189262051E-03       3    4    1         0.3161385260E-02      0.1111703711E-01
          0                 3           1             3    4     1       0.1359185146E-04       3    4    1         0.3626071544E-03      0.9274951703E-03

    ------------------------------------------------
       NWT REQUIRED            3 OUTER ITERATIONS 
       AND A TOTAL OF          5 INNER ITERATIONS.
    ------------------------------------------------

 NO OUTPUT CONTROL FOR STRESS PERIOD    3   TIME STEP   23
 
 SOLVING FOR HEAD 
                                                   Max.-Head-Change                         Max.-Flux-Residual
  Residual-Control   Outer-Iter.   Inner-Iter.     Column Row Layer    Maximum-Head-Change  Column Row Layer    Maximum-Flux-Residual          L2-NORM 
          0                 1           2             2    2     1       0.4680701435E-02       2    2    1         0.2444199957E+00      0.5041109700E+00
          0                 2           2             3    4     1       0.1202528126E-03       3    4    1         0.3196791347E-02      0.1114051864E-01
          0                 3           1             3    4     1       0.1374343126E-04       3    4    1         0.3666396379E-03      0.9348715228E-03

    ------------------------------------------------
       NWT REQUIRED            3 OUTER ITERATIONS 
       AND A TOTAL OF          5 INNER ITERATIONS.
    ------------------------------------------------

 NO OUTPUT CONTROL FOR STRESS PERIOD    3   TIME STEP   24
 
 SOLVING FOR HEAD 
                                                   Max.-Head-Change                         Max.-Flux-Residual
  Residual-Control   Outer-Iter.   Inner-Iter.     Column Row Layer    Maximum-Head-Change  Column Row Layer    Maximum-Flux-Residual          L2-NORM 
          0                 1           2             2    2     1       0.4651706534E-02       2    2    1         0.2428948386E+00      0.4985518449E+00
          0                 2           2             3    4     1       0.1215704814E-03       3    4    1         0.3231958742E-02      0.1116398242E-01
          0                 3           1             3    4     1       0.1389399485E-04       3    4    1         0.3706449636E-03      0.9420296608E-03

    ------------------------------------------------
       NWT REQUIRED            3 OUTER ITERATIONS 
       AND A TOTAL OF          5 INNER ITERATIONS.
    ------------------------------------------------

 NO OUTPUT CONTROL FOR STRESS PERIOD    3   TIME STEP   25
 
 SOLVING FOR HEAD 
                                                   Max.-Head-Change                         Max.-Flux-Residual
  Residual-Control   Outer-Iter.   Inner-Iter.     Column Row Layer    Maximum-Head-Change  Column Row Layer    Maximum-Flux-Residual          L2-NORM 
          0                 1           2             2    2     1       0.4623063288E-02       2    2    1         0.2413882581E+00      0.4933972227E+00
          0                 2           2             3    4     1       0.1227676802E-03       3    4    1         0.3263910341E-02      0.1118657395E-01
          0                 3           1             3    4     1       0.1403084211E-04       3    4    1         0.3742842719E-03      0.9489161241E-03

    ------------------------------------------------
       NWT REQUIRED            3 OUTER ITERATIONS 
       AND A TOTAL OF          5 INNER ITERATIONS.
    ------------------------------------------------

 NO OUTPUT CONTROL FOR STRESS PERIOD    3   TIME STEP   26
 
 SOLVING FOR HEAD 
                                                   Max.-Head-Change                         Max.-Flux-Residual
  Residual-Control   Outer-Iter.   Inner-Iter.     Column Row Layer    Maximum-Head-Change  Column Row Layer    Maximum-Flux-Residual          L2-NORM 
          0                 1           2             2    2     1       0.4594938986E-02       2    2    1         0.2399090008E+00      0.4885872202E+00
          0                 2           2             3    4     1       0.1239601593E-03       3    4    1         0.3295736529E-02      0.1120837653E-01
          0                 3           1             3    4     1       0.1416715013E-04       3    4    1         0.3779091992E-03      0.9555240333E-03

    ------------------------------------------------
       NWT REQUIRED            3 OUTER ITERATIONS 
       AND A TOTAL OF          5 INNER ITERATIONS.
    ------------------------------------------------

 NO OUTPUT CONTROL FOR STRESS PERIOD    3   TIME STEP   27
 
 SOLVING FOR HEAD 
                                                   Max.-Head-Change                         Max.-Flux-Residual
  Residual-Control   Outer-Iter.   Inner-Iter.     Column Row Layer    Maximum-Head-Change  Column Row Layer    Maximum-Flux-Residual          L2-NORM 
          0                 1           2             2    2     1       0.4567151313E-02       2    2    1         0.2384475044E+00      0.4841004427E+00
          0                 2           2             3    4     1       0.1250927457E-03       3    4    1         0.3325963457E-02      0.1123017433E-01
          0                 3           1             3    4     1       0.1429664062E-04       3    4    1         0.3813521861E-03      0.9618977664E-03

    ------------------------------------------------
       NWT REQUIRED            3 OUTER ITERATIONS 
       AND A TOTAL OF          5 INNER ITERATIONS.
    ------------------------------------------------

 NO OUTPUT CONTROL FOR STRESS PERIOD    3   TIME STEP   28
 
 SOLVING FOR HEAD 
                                                   Max.-Head-Change                         Max.-Flux-Residual
  Residual-Control   Outer-Iter.   Inner-Iter.     Column Row Layer    Maximum-Head-Change  Column Row Layer    Maximum-Flux-Residual          L2-NORM 
          0                 1           2             2    2     1       0.4539693186E-02       2    2    1         0.2370034379E+00      0.4798918358E+00
          0                 2           2             3    4     1       0.1261111971E-03       3    4    1         0.3353144129E-02      0.1123379160E-01
          0                 3           1             2    3     1       0.1452353535E-04       3    4    1         0.3844483592E-03      0.9669989016E-03

    ------------------------------------------------
       NWT REQUIRED            3 OUTER ITERATIONS 
       AND A TOTAL OF          5 INNER ITERATIONS.
    ------------------------------------------------

 NO OUTPUT CONTROL FOR STRESS PERIOD    3   TIME STEP   29
 
 SOLVING FOR HEAD 
                                                   Max.-Head-Change                         Max.-Flux-Residual
  Residual-Control   Outer-Iter.   Inner-Iter.     Column Row Layer    Maximum-Head-Change  Column Row Layer    Maximum-Flux-Residual          L2-NORM 
          0                 1           2             4   13     1       0.1178337626E-01       4   13    1         0.6784064675E+00      0.1408052319E+01
          0                 2           2             3    4     1       0.1317340785E-03       1   13    1         0.4246897720E-02      0.1413162467E-01
          0                 3           1             2    3     1       0.1528948817E-04       3    4    1         0.4020949604E-03      0.1015296335E-02

    ------------------------------------------------
       NWT REQUIRED            3 OUTER ITERATIONS 
       AND A TOTAL OF          5 INNER ITERATIONS.
    ------------------------------------------------

 NO OUTPUT CONTROL FOR STRESS PERIOD    3   TIME STEP   30



 STREAM LISTING     PERIOD      3   STEP       30

 LAYER ROW COL. STREAM  RCH.  FLOW INTO     FLOW TO   FLOW OUT OF   OVRLND.     DIRECT     STREAM       STREAM     STREAM     STREAM   STREAMBED  STREAMBED
                SEG.NO.  NO.  STRM. RCH.    AQUIFER    STRM. RCH.    RUNOFF     PRECIP       ET          HEAD       DEPTH      WIDTH   CONDCTNC.   GRADIENT

   1    1    1     1     1    7.0927E+01  4.0902E-01   7.0518E+01  0.000E+00  0.000E+00  0.000E+00  1.09470E+03  1.653E+00  1.953E+01  8.791E-02  1.551E+00
   1    2    2     1     2    7.0518E+01  6.3357E-01   6.9884E+01  0.000E+00  0.000E+00  0.000E+00  1.08971E+03  1.647E+00  1.948E+01  1.363E-01  1.549E+00
   1    3    3     1     3    6.9884E+01  5.4046E-01   6.9344E+01  0.000E+00  0.000E+00  0.000E+00  1.08406E+03  1.640E+00  1.941E+01  1.165E-01  1.547E+00
   1    3    4     1     4    6.9344E+01  4.9780E-01   6.8846E+01  0.000E+00  0.000E+00  0.000E+00  1.07904E+03  1.635E+00  1.935E+01  1.074E-01  1.545E+00
   1    4    5     2     1    6.6846E+01  4.0363E-01   6.6442E+01  0.000E+00  0.000E+00  0.000E+00  1.07411E+03  2.175E+00  1.200E+01  7.800E-02  1.725E+00
   1    5    6     2     2    6.6442E+01  3.1006E-01   6.6132E+01  0.000E+00  0.000E+00  0.000E+00  1.06868E+03  2.168E+00  1.200E+01  6.000E-02  1.723E+00
   1    6    6     2     3    6.6132E+01  3.0970E-01   6.5823E+01  0.000E+00  0.000E+00  0.000E+00  1.06395E+03  2.162E+00  1.200E+01  6.000E-02  1.721E+00
   1    7    6     2     4    6.5823E+01  3.0933E-01   6.5513E+01  0.000E+00  0.000E+00  0.000E+00  1.05923E+03  2.156E+00  1.200E+01  6.000E-02  1.719E+00
   1    8    6     2     5    6.5513E+01  3.0897E-01   6.5204E+01  0.000E+00  0.000E+00  0.000E+00  1.05451E+03  2.149E+00  1.200E+01  6.000E-02  1.716E+00
   1    3    5     3     1    2.0000E+00  2.8252E-01   1.7175E+00  0.000E+00  0.000E+00  0.000E+00  1.07555E+03  1.909E+00  9.636E+00  7.227E-02  1.955E+00
   1    3    6     3     2    1.7175E+00  2.4905E-01   1.4684E+00  0.000E+00  0.000E+00  0.000E+00  1.07264E+03  1.727E+00  8.909E+00  6.682E-02  1.864E+00
   1    3    7     3     3    1.4684E+00  1.9718E-01   1.2712E+00  0.000E+00  0.000E+00  0.000E+00  1.06987E+03  1.555E+00  8.218E+00  5.547E-02  1.777E+00
   1    4    8     3     4    1.2712E+00  2.2567E-01   1.0456E+00  0.000E+00  0.000E+00  0.000E+00  1.06682E+03  1.364E+00  7.455E+00  6.709E-02  1.682E+00
   1    5    8     3     5    1.0456E+00  1.5790E-01   8.8768E-01  0.000E+00  0.000E+00  0.000E+00  1.06362E+03  1.164E+00  6.655E+00  4.991E-02  1.582E+00
   1    6    8     3     6    8.8768E-01  5.5980E-02   8.3170E-01  0.000E+00  0.000E+00  0.000E+00  1.06158E+03  1.036E+00  6.145E+00  1.844E-02  1.518E+00
   1    5   10     4     1    1.0000E+01  9.0919E-02   9.9091E+00  0.000E+00  0.000E+00  0.000E+00  1.07836E+03  6.368E-01  1.000E+01  2.500E-02  1.212E+00
   1    5    9     4     2    9.9091E+00  1.8158E-01   9.7275E+00  0.000E+00  0.000E+00  0.000E+00  1.07154E+03  6.315E-01  1.000E+01  5.000E-02  1.211E+00
   1    6    8     4     3    9.7275E+00  1.2689E-01   9.6006E+00  0.000E+00  0.000E+00  0.000E+00  1.06381E+03  6.256E-01  1.000E+01  3.500E-02  1.209E+00
   1    6    8     5     1    1.0432E+01  2.2686E-01   1.0205E+01  0.000E+00  0.000E+00  0.000E+00  1.05868E+03  6.790E-01  1.542E+01  6.166E-02  1.226E+00
   1    7    7     5     2    1.0205E+01  2.7894E-01   9.9265E+00  0.000E+00  0.000E+00  0.000E+00  1.05417E+03  6.732E-01  1.519E+01  7.594E-02  1.224E+00
   1    8    7     5     3    9.9265E+00  1.9221E-01   9.7343E+00  0.000E+00  0.000E+00  0.000E+00  1.04992E+03  6.676E-01  1.497E+01  5.241E-02  1.223E+00
   1    8    6     5     4    9.7343E+00  1.3577E-01   9.5985E+00  0.000E+00  0.000E+00  0.000E+00  1.04691E+03  6.637E-01  1.482E+01  3.706E-02  1.221E+00
   1    9    6     6     1    7.4803E+01  3.2123E-01   7.4482E+01  0.000E+00  0.000E+00  0.000E+00  1.04508E+03  2.354E+00  1.200E+01  6.000E-02  1.785E+00
   1   10    7     6     2    7.4482E+01  3.2086E-01   7.4161E+01  0.000E+00  0.000E+00  0.000E+00  1.04053E+03  2.348E+00  1.200E+01  6.000E-02  1.783E+00
   1   11    7     6     3    7.4161E+01  3.2050E-01   7.3840E+01  0.000E+00  0.000E+00  0.000E+00  1.03598E+03  2.342E+00  1.200E+01  6.000E-02  1.781E+00
   1   12    7     6     4    7.3840E+01  3.2013E-01   7.3520E+01  0.000E+00  0.000E+00  0.000E+00  1.03143E+03  2.336E+00  1.200E+01  6.000E-02  1.779E+00
   1   13    7     6     5    7.3520E+01  2.7317E-02   7.3493E+01  0.000E+00  0.000E+00  0.000E+00  1.02824E+03  2.332E+00  1.200E+01  2.400E-02  3.794E-01
   1   14    9     7     1    1.5000E+02  1.3359E+00   1.4866E+02  0.000E+00  0.000E+00  0.000E+00  1.03987E+03  2.288E+00  5.529E+01  5.593E-01  7.962E-01
   1   13    8     7     2    1.4866E+02  1.8332E+00   1.4683E+02  0.000E+00  0.000E+00  0.000E+00  1.03478E+03  2.279E+00  5.526E+01  6.148E-01  9.940E-01
   1   13    7     7     3    1.4683E+02  1.4446E+00   1.4539E+02  0.000E+00  0.000E+00  0.000E+00  1.02969E+03  2.271E+00  5.522E+01  5.585E-01  8.623E-01
   1   13    6     8     1    2.1888E+02  1.1065E+00   2.1777E+02  0.000E+00  0.000E+00  0.000E+00  1.02512E+03  3.243E+00  4.702E+01  4.791E-01  7.698E-01
   1   13    5     8     2    2.1777E+02  2.7854E-01   2.1749E+02  0.000E+00  0.000E+00  0.000E+00  1.01886E+03  3.239E+00  4.696E+01  4.786E-01  1.940E-01
   1   13    4     8     3    2.1749E+02 -1.8813E+00   2.1938E+02  0.000E+00  0.000E+00  0.000E+00  1.01262E+03  3.243E+00  4.703E+01  4.792E+00 -1.309E-01
   1   13    3     8     4    2.1938E+02 -3.1223E+00   2.2250E+02  0.000E+00  0.000E+00  0.000E+00  1.00638E+03  3.257E+00  4.723E+01  4.813E+00 -2.163E-01
   1   13    2     8     5    2.2250E+02 -1.9606E+00   2.2446E+02  0.000E+00  0.000E+00  0.000E+00  1.00015E+03  3.271E+00  4.743E+01  4.833E+00 -1.352E-01
   1   13    1     8     6    2.2446E+02 -1.5847E+00   2.2604E+02  0.000E+00  0.000E+00  0.000E+00  9.95156E+02  3.281E+00  4.757E+01  2.909E+00 -1.816E-01
   1    8    6     9     1    0.0000E+00  0.0000E+00   0.0000E+00  0.000E+00  0.000E+00  0.000E+00  1.07875E+03  0.000E+00  4.000E+00  0.000E+00  1.000E+00
   1    8    5     9     2    0.0000E+00  0.0000E+00   0.0000E+00  0.000E+00  0.000E+00  0.000E+00  1.07825E+03  0.000E+00  4.000E+00  0.000E+00  1.000E+00





UNSATURATED ZONE PACKAGE VOLUMETRIC BUDGET FOR  TIME STEP    30 STRESS PERIOD    3
  ------------------------------------------------------------------------------



     CUMULATIVE VOLUMES      L**3       RATES FOR THIS TIME STEP      L**3/T
     ------------------                 ------------------------

           IN:                                      IN:
           ---                                      ---
        INFILTRATION =     4527684.0000          INFILTRATION =           0.8475

          OUT:                                     OUT:
          ----                                     ----
              UZF ET =       30240.4710                UZF ET =           0.0113
        UZF RECHARGE =     2440025.7152          UZF RECHARGE =           0.7936

            IN - OUT =     2057417.8138              IN - OUT =       4.2552E-02

          STORAGE:                                 STORAGE:
          --------                                 --------
      STORAGE CHANGE =     2057417.8040        STORAGE CHANGE =       4.2552E-02

 PERCENT DISCREPANCY IS DIFFERENCE BETWEEN IN-OUT MINUS CHANGE IN STORAGE
 DIVIDED BY THE AVERAGE OF IN AND OUT TIMES 100

 PERCENT DISCREPANCY =           0.00     PERCENT DISCREPANCY =           0.00






1
  VOLUMETRIC BUDGET FOR ENTIRE MODEL AT END OF TIME STEP   30, STRESS PERIOD   3
  ------------------------------------------------------------------------------

     CUMULATIVE VOLUMES      L**3       RATES FOR THIS TIME STEP      L**3/T
     ------------------                 ------------------------

           IN:                                      IN:
           ---                                      ---
               AWU WELLS =           0.0000                 AWU WELLS =           0.0000
      DIVERSION SEGMENTS =           0.0000        DIVERSION SEGMENTS =           0.0000
           GW IRRIGATION =           0.0000             GW IRRIGATION =           0.0000
           SW IRRIGATION =           0.0000             SW IRRIGATION =           0.0000
        SYSTEM LOSSES GW =           0.0000          SYSTEM LOSSES GW =           0.0000
        SYSTEM LOSSES SW =           0.0000          SYSTEM LOSSES SW =           0.0000

                TOTAL IN =           0.0000                  TOTAL IN =           0.0000

          OUT:                                     OUT:
          ----                                     ----
               AWU WELLS =           0.0000                 AWU WELLS =           0.0000
      DIVERSION SEGMENTS =           0.0000        DIVERSION SEGMENTS =           0.0000
           GW IRRIGATION =           0.0000             GW IRRIGATION =           0.0000
           SW IRRIGATION =           0.0000             SW IRRIGATION =           0.0000
        SYSTEM LOSSES GW =           0.0000          SYSTEM LOSSES GW =           0.0000
        SYSTEM LOSSES SW =           0.0000          SYSTEM LOSSES SW =           0.0000

               TOTAL OUT =           0.0000                 TOTAL OUT =           0.0000

                IN - OUT =           0.0000                  IN - OUT =           0.0000

     PERCENT DISCREPANCY =           0.00         PERCENT DISCREPANCY =           0.00



1
  VOLUMETRIC BUDGET FOR ENTIRE MODEL AT END OF TIME STEP   30, STRESS PERIOD   3
  ------------------------------------------------------------------------------

     CUMULATIVE VOLUMES      L**3       RATES FOR THIS TIME STEP      L**3/T
     ------------------                 ------------------------

           IN:                                      IN:
           ---                                      ---
             STORAGE     =     2678160.0000               STORAGE     =           0.4344
       CONSTANT HEAD     =           0.0000         CONSTANT HEAD     =           0.0000
     HEAD DEP BOUNDS     =     1526619.6250       HEAD DEP BOUNDS     =           0.2858
      STREAM LEAKAGE     =    64131140.0000        STREAM LEAKAGE     =          13.4328
        UZF RECHARGE     =     2440025.7500          UZF RECHARGE     =           0.7936
               GW ET     =           0.0000                 GW ET     =           0.0000
     SURFACE LEAKAGE     =           0.0000       SURFACE LEAKAGE     =           0.0000
           AWU WELLS     =           0.0000             AWU WELLS     =           0.0000

                TOTAL IN =    70775944.0000                  TOTAL IN =          14.9466

          OUT:                                     OUT:
          ----                                     ----
             STORAGE     =    15132399.0000               STORAGE     =           6.0945
       CONSTANT HEAD     =           0.0000         CONSTANT HEAD     =           0.0000
     HEAD DEP BOUNDS     =     1544552.7500       HEAD DEP BOUNDS     =           0.2926
      STREAM LEAKAGE     =    53969776.0000        STREAM LEAKAGE     =           8.5489
        UZF RECHARGE     =           0.0000          UZF RECHARGE     =           0.0000
               GW ET     =      138484.1562                 GW ET     =       1.0165E-02
     SURFACE LEAKAGE     =           0.0000       SURFACE LEAKAGE     =           0.0000
           AWU WELLS     =           0.0000             AWU WELLS     =           0.0000

               TOTAL OUT =    70785216.0000                 TOTAL OUT =          14.9462

                IN - OUT =       -9272.0000                  IN - OUT =       4.2343E-04

     PERCENT DISCREPANCY =          -0.01         PERCENT DISCREPANCY =           0.00






         TIME SUMMARY AT END OF TIME STEP   30 IN STRESS PERIOD    3
                    SECONDS     MINUTES      HOURS       DAYS        YEARS
                    -----------------------------------------------------------
   TIME STEP LENGTH  87600.      1460.0      24.333      1.0139     2.77588E-03
 STRESS PERIOD TIME 2.62800E+06  43800.      730.00      30.417     8.32763E-02
         TOTAL TIME 5.34240E+06  89040.      1484.0      61.833     0.16929    
1
1
                            STRESS PERIOD NO.    4, LENGTH =   2628000.    
                            -----------------------------------------------

                              NUMBER OF TIME STEPS =    30

                               MULTIPLIER FOR DELT =     1.000

                            INITIAL TIME STEP SIZE =   87600.00    

 REUSING NON-PARAMETER GHB CELLS FROM LAST STRESS PERIOD

      2 GHB CELLS

 REUSING STREAM SEGMENT DATA FROM LAST STRESS PERIOD



            AREAL INFILTRATION RATE
 READING ON UNIT   19 WITH FORMAT: (10F4.0)            

            1           2           3           4           5           6           7           8           9          10
 ........................................................................................................................
   1   1.0000E-10  2.0000E-10   0.000       0.000       0.000       0.000       0.000       0.000       0.000       0.000    
   2   2.0000E-10  1.0000E-10  2.0000E-10   0.000       0.000      8.0000E-10  8.0000E-10  5.0000E-10   0.000       0.000    
   3    0.000      5.0000E-10  1.0000E-10  1.0000E-10  8.0000E-10  8.0000E-10  5.0000E-10  5.0000E-10   0.000       0.000    
   4   8.0000E-10  5.0000E-10  1.0000E-10  1.0000E-10  1.0000E-10  1.0000E-10  1.0000E-10  1.0000E-10  2.0000E-10   0.000    
   5   8.0000E-10  5.0000E-10  1.0000E-10  1.0000E-10  1.0000E-10  1.0000E-10  1.0000E-10  1.0000E-10  1.0000E-10  1.0000E-10
   6   8.0000E-10  5.0000E-10  5.0000E-10  2.0000E-10  2.0000E-10  1.0000E-10  1.0000E-10  1.0000E-10  1.0000E-10  5.0000E-10
   7   8.0000E-10  5.0000E-10  5.0000E-10  2.0000E-10  2.0000E-10  1.0000E-10  1.0000E-10  2.0000E-10  2.0000E-10   0.000    
   8    0.000      5.0000E-10  5.0000E-10  2.0000E-10  2.0000E-10  1.0000E-10  1.0000E-10  2.0000E-10  5.0000E-10   0.000    
   9    0.000      5.0000E-10  5.0000E-10  2.0000E-10  2.0000E-10  1.0000E-10  1.0000E-10  2.0000E-10  5.0000E-10   0.000    
  10    0.000      5.0000E-10  5.0000E-10  2.0000E-10  2.0000E-10  1.0000E-10  1.0000E-10  2.0000E-10  5.0000E-10  8.0000E-10
  11    0.000      1.0000E-10  1.0000E-10  1.0000E-10  1.0000E-10  1.0000E-10  1.0000E-10  2.0000E-10  5.0000E-10   0.000    
  12   1.0000E-10  1.0000E-10  1.0000E-10  1.0000E-10  1.0000E-10  1.0000E-10  1.0000E-10  1.0000E-10  2.0000E-10   0.000    
  13   1.0000E-10  1.0000E-10  2.0000E-10  2.0000E-10  2.0000E-10  2.0000E-10  2.0000E-10  1.0000E-10  1.0000E-10   0.000    
  14    0.000      2.0000E-10  5.0000E-10  5.0000E-10  5.0000E-10  5.0000E-10  5.0000E-10  2.0000E-10  1.0000E-10   0.000    
  15    0.000       0.000      8.0000E-10  8.0000E-10  8.0000E-10  8.0000E-10   0.000       0.000       0.000       0.000    

                  ET RATE =  1.000000E-10

 USING ET EXTINCTION DEPTH FROM PREVIOUS STRESS PERIOD. CURRENT PERIOD IS:       4

 USING EXTINCTION WATER CONTENT FROM PREVIOUS STRESS PERIOD. CURRENT PERIOD IS:       4

 PROCESSING AWU STRESS PERIOD DATA

 READING AWU STRESS PERIOD DATA

 READING IRRIGATION STREAM

 READING IRRIGATION WELL

 READING SUPPLEMENTAL WEL

 END PROCESSING AWU STRESS PERIOD DATA OPTIONS
 
 SOLVING FOR HEAD 
                                                   Max.-Head-Change                         Max.-Flux-Residual
  Residual-Control   Outer-Iter.   Inner-Iter.     Column Row Layer    Maximum-Head-Change  Column Row Layer    Maximum-Flux-Residual          L2-NORM 
          0                 1           2             4   13     1       0.1289755495E-01       4   13    1         0.7429515052E+00      0.1546241529E+01
          0                 2           2             3    4     1       0.1361833579E-03       1   13    1         0.4747946175E-02      0.1486142326E-01
          0                 3           1             2    3     1       0.1590712588E-04       2    3    1         0.4174538036E-03      0.1053461784E-02

    ------------------------------------------------
       NWT REQUIRED            3 OUTER ITERATIONS 
       AND A TOTAL OF          5 INNER ITERATIONS.
    ------------------------------------------------

 NO OUTPUT CONTROL FOR STRESS PERIOD    4   TIME STEP    1
 
 SOLVING FOR HEAD 
                                                   Max.-Head-Change                         Max.-Flux-Residual
  Residual-Control   Outer-Iter.   Inner-Iter.     Column Row Layer    Maximum-Head-Change  Column Row Layer    Maximum-Flux-Residual          L2-NORM 
          0                 1           2             2   13     1       0.1163145066E-01       4   13    1         0.6639109332E+00      0.1444682286E+01
          0                 2           2             3    4     1       0.1400356225E-03       1   13    1         0.4391019238E-02      0.1474737545E-01
          0                 3           1             2    3     1       0.1646471969E-04       2    3    1         0.4320846576E-03      0.1085554727E-02

    ------------------------------------------------
       NWT REQUIRED            3 OUTER ITERATIONS 
       AND A TOTAL OF          5 INNER ITERATIONS.
    ------------------------------------------------

 NO OUTPUT CONTROL FOR STRESS PERIOD    4   TIME STEP    2
 
 SOLVING FOR HEAD 
                                                   Max.-Head-Change                         Max.-Flux-Residual
  Residual-Control   Outer-Iter.   Inner-Iter.     Column Row Layer    Maximum-Head-Change  Column Row Layer    Maximum-Flux-Residual          L2-NORM 
          0                 1           2             2   13     1       0.1061968847E-01       2   13    1         0.6014994523E+00      0.1355156219E+01
          0                 2           2             2    3     1       0.1443292582E-03       1   13    1         0.4064353371E-02      0.1465721161E-01
          0                 3           1             2    3     1       0.1700564710E-04       2    3    1         0.4461615000E-03      0.1114011339E-02

    ------------------------------------------------
       NWT REQUIRED            3 OUTER ITERATIONS 
       AND A TOTAL OF          5 INNER ITERATIONS.
    ------------------------------------------------

 NO OUTPUT CONTROL FOR STRESS PERIOD    4   TIME STEP    3
 
 SOLVING FOR HEAD 
                                                   Max.-Head-Change                         Max.-Flux-Residual
  Residual-Control   Outer-Iter.   Inner-Iter.     Column Row Layer    Maximum-Head-Change  Column Row Layer    Maximum-Flux-Residual          L2-NORM 
          0                 1           2             2   13     1       0.9697114233E-02       2   13    1         0.5491593603E+00      0.1276326094E+01
          0                 2           2             2    3     1       0.1488469585E-03       3    4    1         0.3915966772E-02      0.1462041372E-01
          0                 3           1             2    3     1       0.1752673370E-04       2    3    1         0.4599802585E-03      0.1143380795E-02

    ------------------------------------------------
       NWT REQUIRED            3 OUTER ITERATIONS 
       AND A TOTAL OF          5 INNER ITERATIONS.
    ------------------------------------------------

 NO OUTPUT CONTROL FOR STRESS PERIOD    4   TIME STEP    4
 
 SOLVING FOR HEAD 
                                                   Max.-Head-Change                         Max.-Flux-Residual
  Residual-Control   Outer-Iter.   Inner-Iter.     Column Row Layer    Maximum-Head-Change  Column Row Layer    Maximum-Flux-Residual          L2-NORM 
          0                 1           2             2   13     1       0.8855953624E-02       2   13    1         0.5014409269E+00      0.1206996715E+01
          0                 2           2             2    3     1       0.1532950811E-03       2    3    1         0.4012639912E-02      0.1460198158E-01
          0                 3           1             2    3     1       0.1805075035E-04       2    3    1         0.4737078788E-03      0.1170217980E-02

    ------------------------------------------------
       NWT REQUIRED            3 OUTER ITERATIONS 
       AND A TOTAL OF          5 INNER ITERATIONS.
    ------------------------------------------------

 NO OUTPUT CONTROL FOR STRESS PERIOD    4   TIME STEP    5
 
 SOLVING FOR HEAD 
                                                   Max.-Head-Change                         Max.-Flux-Residual
  Residual-Control   Outer-Iter.   Inner-Iter.     Column Row Layer    Maximum-Head-Change  Column Row Layer    Maximum-Flux-Residual          L2-NORM 
          0                 1           2             2   13     1       0.8089032738E-02       2   13    1         0.4579369699E+00      0.1146060856E+01
          0                 2           2             2    3     1       0.1576489564E-03       2    3    1         0.4126934718E-02      0.1460587662E-01
          0                 3           1             2    3     1       0.1856239301E-04       2    3    1         0.4871292812E-03      0.1195996019E-02

    ------------------------------------------------
       NWT REQUIRED            3 OUTER ITERATIONS 
       AND A TOTAL OF          5 INNER ITERATIONS.
    ------------------------------------------------

 NO OUTPUT CONTROL FOR STRESS PERIOD    4   TIME STEP    6
 
 SOLVING FOR HEAD 
                                                   Max.-Head-Change                         Max.-Flux-Residual
  Residual-Control   Outer-Iter.   Inner-Iter.     Column Row Layer    Maximum-Head-Change  Column Row Layer    Maximum-Flux-Residual          L2-NORM 
          0                 1           2             2    2     1       0.7608225723E-02       2   13    1         0.4182733641E+00      0.1092538367E+01
          0                 2           2             2    3     1       0.1618923378E-03       2    3    1         0.4238327503E-02      0.1462564044E-01
          0                 3           1             2    3     1       0.1906106591E-04       2    3    1         0.5002102069E-03      0.1220614288E-02

    ------------------------------------------------
       NWT REQUIRED            3 OUTER ITERATIONS 
       AND A TOTAL OF          5 INNER ITERATIONS.
    ------------------------------------------------

 NO OUTPUT CONTROL FOR STRESS PERIOD    4   TIME STEP    7
 
 SOLVING FOR HEAD 
                                                   Max.-Head-Change                         Max.-Flux-Residual
  Residual-Control   Outer-Iter.   Inner-Iter.     Column Row Layer    Maximum-Head-Change  Column Row Layer    Maximum-Flux-Residual          L2-NORM 
          0                 1           2             2    2     1       0.7558308143E-02       2    2    1         0.3947946787E+00      0.1045538863E+01
          0                 2           2             2    3     1       0.1660279467E-03       2    3    1         0.4346889533E-02      0.1464842185E-01
          0                 3           1             2    3     1       0.1954708894E-04       2    3    1         0.5129590805E-03      0.1243496711E-02

    ------------------------------------------------
       NWT REQUIRED            3 OUTER ITERATIONS 
       AND A TOTAL OF          5 INNER ITERATIONS.
    ------------------------------------------------

 NO OUTPUT CONTROL FOR STRESS PERIOD    4   TIME STEP    8
 
 SOLVING FOR HEAD 
                                                   Max.-Head-Change                         Max.-Flux-Residual
  Residual-Control   Outer-Iter.   Inner-Iter.     Column Row Layer    Maximum-Head-Change  Column Row Layer    Maximum-Flux-Residual          L2-NORM 
          0                 1           2             2    2     1       0.7509075232E-02       2    2    1         0.3922043405E+00      0.1004261182E+01
          0                 2           2             2    3     1       0.1700860474E-03       2    3    1         0.4453415556E-02      0.1468338490E-01
          0                 3           1             2    3     1       0.2002401543E-04       2    3    1         0.5254691573E-03      0.1265428786E-02

    ------------------------------------------------
       NWT REQUIRED            3 OUTER ITERATIONS 
       AND A TOTAL OF          5 INNER ITERATIONS.
    ------------------------------------------------

 NO OUTPUT CONTROL FOR STRESS PERIOD    4   TIME STEP    9
 
 SOLVING FOR HEAD 
                                                   Max.-Head-Change                         Max.-Flux-Residual
  Residual-Control   Outer-Iter.   Inner-Iter.     Column Row Layer    Maximum-Head-Change  Column Row Layer    Maximum-Flux-Residual          L2-NORM 
          0                 1           2             2    2     1       0.7460601279E-02       2    2    1         0.3896540208E+00      0.9679980155E+00
          0                 2           2             2    3     1       0.1740408420E-03       2    3    1         0.4557228196E-02      0.1473559542E-01
          0                 3           1             2    3     1       0.2048881529E-04       2    3    1         0.5376609066E-03      0.1287454583E-02

    ------------------------------------------------
       NWT REQUIRED            3 OUTER ITERATIONS 
       AND A TOTAL OF          5 INNER ITERATIONS.
    ------------------------------------------------

 NO OUTPUT CONTROL FOR STRESS PERIOD    4   TIME STEP   10
 
 SOLVING FOR HEAD 
                                                   Max.-Head-Change                         Max.-Flux-Residual
  Residual-Control   Outer-Iter.   Inner-Iter.     Column Row Layer    Maximum-Head-Change  Column Row Layer    Maximum-Flux-Residual          L2-NORM 
          0                 1           2             2    2     1       0.7412873069E-02       2    2    1         0.3871430033E+00      0.9361087283E+00
          0                 2           2             2    3     1       0.1779227750E-03       2    3    1         0.4659126637E-02      0.1478621636E-01
          0                 3           1             2    3     1       0.2094506511E-04       2    3    1         0.5496282170E-03      0.1308132811E-02

    ------------------------------------------------
       NWT REQUIRED            3 OUTER ITERATIONS 
       AND A TOTAL OF          5 INNER ITERATIONS.
    ------------------------------------------------

 NO OUTPUT CONTROL FOR STRESS PERIOD    4   TIME STEP   11
 
 SOLVING FOR HEAD 
                                                   Max.-Head-Change                         Max.-Flux-Residual
  Residual-Control   Outer-Iter.   Inner-Iter.     Column Row Layer    Maximum-Head-Change  Column Row Layer    Maximum-Flux-Residual          L2-NORM 
          0                 1           2             2    2     1       0.7365790163E-02       2    2    1         0.3846660457E+00      0.9080353658E+00
          0                 2           2             2    3     1       0.1816775165E-03       2    3    1         0.4757685333E-02      0.1485083912E-01
          0                 3           1             2    3     1       0.2138637979E-04       2    3    1         0.5612035167E-03      0.1327941146E-02

    ------------------------------------------------
       NWT REQUIRED            3 OUTER ITERATIONS 
       AND A TOTAL OF          5 INNER ITERATIONS.
    ------------------------------------------------

 NO OUTPUT CONTROL FOR STRESS PERIOD    4   TIME STEP   12
 
 SOLVING FOR HEAD 
                                                   Max.-Head-Change                         Max.-Flux-Residual
  Residual-Control   Outer-Iter.   Inner-Iter.     Column Row Layer    Maximum-Head-Change  Column Row Layer    Maximum-Flux-Residual          L2-NORM 
          0                 1           2             2    2     1       0.7319427797E-02       2    2    1         0.3822270600E+00      0.8832744416E+00
          0                 2           2             2    3     1       0.1853639587E-03       2    3    1         0.4854449609E-02      0.1492148891E-01
          0                 3           1             2    3     1       0.2181967942E-04       2    3    1         0.5725684200E-03      0.1347777871E-02

    ------------------------------------------------
       NWT REQUIRED            3 OUTER ITERATIONS 
       AND A TOTAL OF          5 INNER ITERATIONS.
    ------------------------------------------------

 NO OUTPUT CONTROL FOR STRESS PERIOD    4   TIME STEP   13
 
 SOLVING FOR HEAD 
                                                   Max.-Head-Change                         Max.-Flux-Residual
  Residual-Control   Outer-Iter.   Inner-Iter.     Column Row Layer    Maximum-Head-Change  Column Row Layer    Maximum-Flux-Residual          L2-NORM 
          0                 1           2             2    2     1       0.7273773557E-02       2    2    1         0.3798253919E+00      0.8613978539E+00
          0                 2           2             2    3     1       0.1889839484E-03       2    3    1         0.4949466545E-02      0.1498263185E-01
          0                 3           1             2    3     1       0.2224519408E-04       2    3    1         0.5837287690E-03      0.1364829277E-02

    ------------------------------------------------
       NWT REQUIRED            3 OUTER ITERATIONS 
       AND A TOTAL OF          5 INNER ITERATIONS.
    ------------------------------------------------

 NO OUTPUT CONTROL FOR STRESS PERIOD    4   TIME STEP   14
 
 SOLVING FOR HEAD 
                                                   Max.-Head-Change                         Max.-Flux-Residual
  Residual-Control   Outer-Iter.   Inner-Iter.     Column Row Layer    Maximum-Head-Change  Column Row Layer    Maximum-Flux-Residual          L2-NORM 
          0                 1           2             2    2     1       0.7228727740E-02       2    2    1         0.3774558353E+00      0.8420144070E+00
          0                 2           2             2    3     1       0.1924830126E-03       2    3    1         0.5041310024E-02      0.1504677213E-01
          0                 3           1             2    3     1       0.2265649419E-04       2    3    1         0.5945162421E-03      0.1381384746E-02

    ------------------------------------------------
       NWT REQUIRED            3 OUTER ITERATIONS 
       AND A TOTAL OF          5 INNER ITERATIONS.
    ------------------------------------------------

 NO OUTPUT CONTROL FOR STRESS PERIOD    4   TIME STEP   15
 
 SOLVING FOR HEAD 
                                                   Max.-Head-Change                         Max.-Flux-Residual
  Residual-Control   Outer-Iter.   Inner-Iter.     Column Row Layer    Maximum-Head-Change  Column Row Layer    Maximum-Flux-Residual          L2-NORM 
          0                 1           2             2    2     1       0.7184366292E-02       2    2    1         0.3751223420E+00      0.8247870005E+00
          0                 2           2             2    3     1       0.1959198862E-03       2    3    1         0.5131518068E-02      0.1511040188E-01
          0                 3           1             2    3     1       0.2306051057E-04       2    3    1         0.6051123055E-03      0.1397129031E-02

    ------------------------------------------------
       NWT REQUIRED            3 OUTER ITERATIONS 
       AND A TOTAL OF          5 INNER ITERATIONS.
    ------------------------------------------------

 NO OUTPUT CONTROL FOR STRESS PERIOD    4   TIME STEP   16
 
 SOLVING FOR HEAD 
                                                   Max.-Head-Change                         Max.-Flux-Residual
  Residual-Control   Outer-Iter.   Inner-Iter.     Column Row Layer    Maximum-Head-Change  Column Row Layer    Maximum-Flux-Residual          L2-NORM 
          0                 1           2             2    2     1       0.7140589898E-02       2    2    1         0.3728197295E+00      0.8094325588E+00
          0                 2           2             2    3     1       0.1992680180E-03       2    3    1         0.5219397362E-02      0.1517419224E-01
          0                 3           1             2    3     1       0.2345409206E-04       2    3    1         0.6154347099E-03      0.1412231736E-02

    ------------------------------------------------
       NWT REQUIRED            3 OUTER ITERATIONS 
       AND A TOTAL OF          5 INNER ITERATIONS.
    ------------------------------------------------

 NO OUTPUT CONTROL FOR STRESS PERIOD    4   TIME STEP   17
 
 SOLVING FOR HEAD 
                                                   Max.-Head-Change                         Max.-Flux-Residual
  Residual-Control   Outer-Iter.   Inner-Iter.     Column Row Layer    Maximum-Head-Change  Column Row Layer    Maximum-Flux-Residual          L2-NORM 
          0                 1           2             2    2     1       0.7097475063E-02       2    2    1         0.3705519731E+00      0.7957002541E+00
          0                 2           2             2    3     1       0.2025298317E-03       2    3    1         0.5305008014E-02      0.1523635839E-01
          0                 3           1             2    3     1       0.2383755430E-04       2    3    1         0.6254912956E-03      0.1426486745E-02

    ------------------------------------------------
       NWT REQUIRED            3 OUTER ITERATIONS 
       AND A TOTAL OF          5 INNER ITERATIONS.
    ------------------------------------------------

 NO OUTPUT CONTROL FOR STRESS PERIOD    4   TIME STEP   18
 
 SOLVING FOR HEAD 
                                                   Max.-Head-Change                         Max.-Flux-Residual
  Residual-Control   Outer-Iter.   Inner-Iter.     Column Row Layer    Maximum-Head-Change  Column Row Layer    Maximum-Flux-Residual          L2-NORM 
          0                 1           2             2    2     1       0.7055010444E-02       2    2    1         0.3683184785E+00      0.7833685355E+00
          0                 2           2             2    3     1       0.2057348594E-03       2    3    1         0.5389128890E-02      0.1529761083E-01
          0                 3           1             2    3     1       0.2421433584E-04       2    3    1         0.6353727560E-03      0.1440165643E-02

    ------------------------------------------------
       NWT REQUIRED            3 OUTER ITERATIONS 
       AND A TOTAL OF          5 INNER ITERATIONS.
    ------------------------------------------------

 NO OUTPUT CONTROL FOR STRESS PERIOD    4   TIME STEP   19
 
 SOLVING FOR HEAD 
                                                   Max.-Head-Change                         Max.-Flux-Residual
  Residual-Control   Outer-Iter.   Inner-Iter.     Column Row Layer    Maximum-Head-Change  Column Row Layer    Maximum-Flux-Residual          L2-NORM 
          0                 1           2             2    2     1       0.7013097358E-02       2    2    1         0.3661140955E+00      0.7722498514E+00
          0                 2           2             2    3     1       0.2088570308E-03       2    3    1         0.5471072077E-02      0.1535714001E-01
          0                 3           1             2    3     1       0.2458140256E-04       2    3    1         0.6449990348E-03      0.1453147093E-02

    ------------------------------------------------
       NWT REQUIRED            3 OUTER ITERATIONS 
       AND A TOTAL OF          5 INNER ITERATIONS.
    ------------------------------------------------

 NO OUTPUT CONTROL FOR STRESS PERIOD    4   TIME STEP   20
 
 SOLVING FOR HEAD 
                                                   Max.-Head-Change                         Max.-Flux-Residual
  Residual-Control   Outer-Iter.   Inner-Iter.     Column Row Layer    Maximum-Head-Change  Column Row Layer    Maximum-Flux-Residual          L2-NORM 
          0                 1           2             2    2     1       0.6971812975E-02       2    2    1         0.3639428338E+00      0.7621864650E+00
          0                 2           2             2    3     1       0.2118979931E-03       2    3    1         0.5550882891E-02      0.1541572567E-01
          0                 3           1             3   13     1      -0.4750986893E-04       3   13    1        -0.2837213296E-02      0.3194423611E-02

    ------------------------------------------------
       NWT REQUIRED            3 OUTER ITERATIONS 
       AND A TOTAL OF          5 INNER ITERATIONS.
    ------------------------------------------------

 NO OUTPUT CONTROL FOR STRESS PERIOD    4   TIME STEP   21
 
 SOLVING FOR HEAD 
                                                   Max.-Head-Change                         Max.-Flux-Residual
  Residual-Control   Outer-Iter.   Inner-Iter.     Column Row Layer    Maximum-Head-Change  Column Row Layer    Maximum-Flux-Residual          L2-NORM 
          0                 1           2             2    2     1       0.6931146199E-02       2    2    1         0.3618041327E+00      0.7530676007E+00
          0                 2           2             2    3     1       0.2148879964E-03       2    3    1         0.5629354850E-02      0.1547163757E-01
          0                 3           1             2    3     1       0.2529045936E-04       2    3    1         0.6635909054E-03      0.1477388213E-02

    ------------------------------------------------
       NWT REQUIRED            3 OUTER ITERATIONS 
       AND A TOTAL OF          5 INNER ITERATIONS.
    ------------------------------------------------

 NO OUTPUT CONTROL FOR STRESS PERIOD    4   TIME STEP   22
 
 SOLVING FOR HEAD 
                                                   Max.-Head-Change                         Max.-Flux-Residual
  Residual-Control   Outer-Iter.   Inner-Iter.     Column Row Layer    Maximum-Head-Change  Column Row Layer    Maximum-Flux-Residual          L2-NORM 
          0                 1           2             2    2     1       0.6890999326E-02       2    2    1         0.3596928521E+00      0.7447125831E+00
          0                 2           2             2    3     1       0.2177718765E-03       2    3    1         0.5705040921E-02      0.1552585652E-01
          0                 3           1             2    3     1       0.2562956792E-04       2    3    1         0.6724859698E-03      0.1488621308E-02

    ------------------------------------------------
       NWT REQUIRED            3 OUTER ITERATIONS 
       AND A TOTAL OF          5 INNER ITERATIONS.
    ------------------------------------------------

 NO OUTPUT CONTROL FOR STRESS PERIOD    4   TIME STEP   23
 
 SOLVING FOR HEAD 
                                                   Max.-Head-Change                         Max.-Flux-Residual
  Residual-Control   Outer-Iter.   Inner-Iter.     Column Row Layer    Maximum-Head-Change  Column Row Layer    Maximum-Flux-Residual          L2-NORM 
          0                 1           2             2    2     1       0.6851449685E-02       2    2    1         0.3576130556E+00      0.7370642759E+00
          0                 2           2             2    3     1       0.2206083518E-03       2    3    1         0.5779481524E-02      0.1557847547E-01
          0                 3           1             2    3     1       0.2596308799E-04       2    3    1         0.6812318265E-03      0.1499371792E-02

    ------------------------------------------------
       NWT REQUIRED            3 OUTER ITERATIONS 
       AND A TOTAL OF          5 INNER ITERATIONS.
    ------------------------------------------------

 NO OUTPUT CONTROL FOR STRESS PERIOD    4   TIME STEP   24
 
 SOLVING FOR HEAD 
                                                   Max.-Head-Change                         Max.-Flux-Residual
  Residual-Control   Outer-Iter.   Inner-Iter.     Column Row Layer    Maximum-Head-Change  Column Row Layer    Maximum-Flux-Residual          L2-NORM 
          0                 1           2             2    2     1       0.6812487228E-02       2    2    1         0.3555641902E+00      0.7300184796E+00
          0                 2           2             2    3     1       0.2233704699E-03       2    3    1         0.5851969736E-02      0.1562910819E-01
          0                 3           1             2    3     1       0.2628787669E-04       2    3    1         0.6897485283E-03      0.1509656847E-02

    ------------------------------------------------
       NWT REQUIRED            3 OUTER ITERATIONS 
       AND A TOTAL OF          5 INNER ITERATIONS.
    ------------------------------------------------

 NO OUTPUT CONTROL FOR STRESS PERIOD    4   TIME STEP   25
 
 SOLVING FOR HEAD 
                                                   Max.-Head-Change                         Max.-Flux-Residual
  Residual-Control   Outer-Iter.   Inner-Iter.     Column Row Layer    Maximum-Head-Change  Column Row Layer    Maximum-Flux-Residual          L2-NORM 
          0                 1           2             2    2     1       0.6774014405E-02       2    2    1         0.3535411693E+00      0.7235124486E+00
          0                 2           2             2    3     1       0.2260600195E-03       2    3    1         0.5922552428E-02      0.1567745474E-01
          0                 3           1             2    3     1       0.2660414235E-04       2    3    1         0.6980415669E-03      0.1519423847E-02

    ------------------------------------------------
       NWT REQUIRED            3 OUTER ITERATIONS 
       AND A TOTAL OF          5 INNER ITERATIONS.
    ------------------------------------------------

 NO OUTPUT CONTROL FOR STRESS PERIOD    4   TIME STEP   26
 
 SOLVING FOR HEAD 
                                                   Max.-Head-Change                         Max.-Flux-Residual
  Residual-Control   Outer-Iter.   Inner-Iter.     Column Row Layer    Maximum-Head-Change  Column Row Layer    Maximum-Flux-Residual          L2-NORM 
          0                 1           2             2    2     1       0.6736109542E-02       2    2    1         0.3515480663E+00      0.7174645859E+00
          0                 2           2             2    3     1       0.2287067288E-03       2    3    1         0.5992008255E-02      0.1572384715E-01
          0                 3           1             2    3     1       0.2691539179E-04       2    3    1         0.7062027684E-03      0.1528745089E-02

    ------------------------------------------------
       NWT REQUIRED            3 OUTER ITERATIONS 
       AND A TOTAL OF          5 INNER ITERATIONS.
    ------------------------------------------------

 NO OUTPUT CONTROL FOR STRESS PERIOD    4   TIME STEP   27
 
 SOLVING FOR HEAD 
                                                   Max.-Head-Change                         Max.-Flux-Residual
  Residual-Control   Outer-Iter.   Inner-Iter.     Column Row Layer    Maximum-Head-Change  Column Row Layer    Maximum-Flux-Residual          L2-NORM 
          0                 1           2             2    2     1       0.6698762753E-02       2    2    1         0.3495843812E+00      0.7118457837E+00
          0                 2           2             2    3     1       0.2312836487E-03       2    3    1         0.6059633276E-02      0.1576892572E-01
          0                 3           1             2    3     1       0.2721843033E-04       2    3    1         0.7141487013E-03      0.1537715367E-02

    ------------------------------------------------
       NWT REQUIRED            3 OUTER ITERATIONS 
       AND A TOTAL OF          5 INNER ITERATIONS.
    ------------------------------------------------

 NO OUTPUT CONTROL FOR STRESS PERIOD    4   TIME STEP   28
 
 SOLVING FOR HEAD 
                                                   Max.-Head-Change                         Max.-Flux-Residual
  Residual-Control   Outer-Iter.   Inner-Iter.     Column Row Layer    Maximum-Head-Change  Column Row Layer    Maximum-Flux-Residual          L2-NORM 
          0                 1           2             2    2     1       0.6661877397E-02       2    2    1         0.3476450302E+00      0.7655504042E+00
          0                 2           2             4   13     1       0.3425839218E-03       4   13    1         0.2034096122E-01      0.3553163922E-01
          0                 3           1             2    3     1       0.2751351009E-04       4   13    1        -0.1405269747E-02      0.2644202051E-02

    ------------------------------------------------
       NWT REQUIRED            3 OUTER ITERATIONS 
       AND A TOTAL OF          5 INNER ITERATIONS.
    ------------------------------------------------

 NO OUTPUT CONTROL FOR STRESS PERIOD    4   TIME STEP   29
 
 SOLVING FOR HEAD 
                                                   Max.-Head-Change                         Max.-Flux-Residual
  Residual-Control   Outer-Iter.   Inner-Iter.     Column Row Layer    Maximum-Head-Change  Column Row Layer    Maximum-Flux-Residual          L2-NORM 
          0                 1           2             4   13     1      -0.2285240988E-01       4   13    1        -0.1310830646E+01      0.2318327993E+01
          0                 2           2             4   13     1       0.2234835646E-02       4   13    1         0.1317120043E+00      0.2371059664E+00
          0                 3           2             4   13     1      -0.1508185877E-03       4   13    1        -0.9140754909E-02      0.1519767496E-01
          0                 4           1             4   13     1       0.5923461942E-05       4   13    1         0.3689863388E-03      0.6089118468E-03

    ------------------------------------------------
       NWT REQUIRED            4 OUTER ITERATIONS 
       AND A TOTAL OF          7 INNER ITERATIONS.
    ------------------------------------------------

 NO OUTPUT CONTROL FOR STRESS PERIOD    4   TIME STEP   30



 STREAM LISTING     PERIOD      4   STEP       30

 LAYER ROW COL. STREAM  RCH.  FLOW INTO     FLOW TO   FLOW OUT OF   OVRLND.     DIRECT     STREAM       STREAM     STREAM     STREAM   STREAMBED  STREAMBED
                SEG.NO.  NO.  STRM. RCH.    AQUIFER    STRM. RCH.    RUNOFF     PRECIP       ET          HEAD       DEPTH      WIDTH   CONDCTNC.   GRADIENT

   1    1    1     1     1    6.5589E+01  3.9119E-01   6.5198E+01  0.000E+00  0.000E+00  0.000E+00  1.09464E+03  1.592E+00  1.893E+01  8.519E-02  1.531E+00
   1    2    2     1     2    6.5198E+01  6.0588E-01   6.4592E+01  0.000E+00  0.000E+00  0.000E+00  1.08964E+03  1.586E+00  1.887E+01  1.321E-01  1.529E+00
   1    3    3     1     3    6.4592E+01  5.1678E-01   6.4075E+01  0.000E+00  0.000E+00  0.000E+00  1.08400E+03  1.580E+00  1.881E+01  1.128E-01  1.527E+00
   1    3    4     1     4    6.4075E+01  4.7593E-01   6.3599E+01  0.000E+00  0.000E+00  0.000E+00  1.07898E+03  1.574E+00  1.875E+01  1.041E-01  1.525E+00
   1    4    5     2     1    6.1599E+01  3.9549E-01   6.1204E+01  0.000E+00  0.000E+00  0.000E+00  1.07400E+03  2.070E+00  1.200E+01  7.800E-02  1.690E+00
   1    5    6     2     2    6.1204E+01  3.0380E-01   6.0900E+01  0.000E+00  0.000E+00  0.000E+00  1.06857E+03  2.063E+00  1.200E+01  6.000E-02  1.688E+00
   1    6    6     2     3    6.0900E+01  3.0343E-01   6.0597E+01  0.000E+00  0.000E+00  0.000E+00  1.06385E+03  2.057E+00  1.200E+01  6.000E-02  1.686E+00
   1    7    6     2     4    6.0597E+01  3.0306E-01   6.0293E+01  0.000E+00  0.000E+00  0.000E+00  1.05913E+03  2.051E+00  1.200E+01  6.000E-02  1.684E+00
   1    8    6     2     5    6.0293E+01  3.0269E-01   5.9991E+01  0.000E+00  0.000E+00  0.000E+00  1.05440E+03  2.045E+00  1.200E+01  6.000E-02  1.682E+00
   1    3    5     3     1    2.0000E+00  2.8252E-01   1.7175E+00  0.000E+00  0.000E+00  0.000E+00  1.07555E+03  1.909E+00  9.636E+00  7.227E-02  1.955E+00
   1    3    6     3     2    1.7175E+00  2.4905E-01   1.4684E+00  0.000E+00  0.000E+00  0.000E+00  1.07264E+03  1.727E+00  8.909E+00  6.682E-02  1.864E+00
   1    3    7     3     3    1.4684E+00  1.9718E-01   1.2712E+00  0.000E+00  0.000E+00  0.000E+00  1.06987E+03  1.555E+00  8.218E+00  5.547E-02  1.777E+00
   1    4    8     3     4    1.2712E+00  2.2567E-01   1.0456E+00  0.000E+00  0.000E+00  0.000E+00  1.06682E+03  1.364E+00  7.455E+00  6.709E-02  1.682E+00
   1    5    8     3     5    1.0456E+00  1.5790E-01   8.8768E-01  0.000E+00  0.000E+00  0.000E+00  1.06362E+03  1.164E+00  6.655E+00  4.991E-02  1.582E+00
   1    6    8     3     6    8.8768E-01  5.5980E-02   8.3170E-01  0.000E+00  0.000E+00  0.000E+00  1.06158E+03  1.036E+00  6.145E+00  1.844E-02  1.518E+00
   1    5   10     4     1    1.0000E+01  9.0919E-02   9.9091E+00  0.000E+00  0.000E+00  0.000E+00  1.07836E+03  6.368E-01  1.000E+01  2.500E-02  1.212E+00
   1    5    9     4     2    9.9091E+00  1.8158E-01   9.7275E+00  0.000E+00  0.000E+00  0.000E+00  1.07154E+03  6.315E-01  1.000E+01  5.000E-02  1.211E+00
   1    6    8     4     3    9.7275E+00  1.2689E-01   9.6006E+00  0.000E+00  0.000E+00  0.000E+00  1.06381E+03  6.256E-01  1.000E+01  3.500E-02  1.209E+00
   1    6    8     5     1    1.0432E+01  2.2686E-01   1.0205E+01  0.000E+00  0.000E+00  0.000E+00  1.05868E+03  6.790E-01  1.542E+01  6.166E-02  1.226E+00
   1    7    7     5     2    1.0205E+01  2.7894E-01   9.9265E+00  0.000E+00  0.000E+00  0.000E+00  1.05417E+03  6.732E-01  1.519E+01  7.594E-02  1.224E+00
   1    8    7     5     3    9.9265E+00  1.9221E-01   9.7343E+00  0.000E+00  0.000E+00  0.000E+00  1.04992E+03  6.676E-01  1.497E+01  5.241E-02  1.223E+00
   1    8    6     5     4    9.7343E+00  1.3577E-01   9.5985E+00  0.000E+00  0.000E+00  0.000E+00  1.04691E+03  6.637E-01  1.482E+01  3.706E-02  1.221E+00
   1    9    6     6     1    1.4589E+01  2.3278E-01   1.4357E+01  0.000E+00  0.000E+00  0.000E+00  1.04361E+03  8.796E-01  1.200E+01  6.000E-02  1.293E+00
   1   10    7     6     2    1.4357E+01  2.3227E-01   1.4124E+01  0.000E+00  0.000E+00  0.000E+00  1.03905E+03  8.711E-01  1.200E+01  6.000E-02  1.290E+00
   1   11    7     6     3    1.4124E+01  2.3176E-01   1.3893E+01  0.000E+00  0.000E+00  0.000E+00  1.03450E+03  8.626E-01  1.200E+01  6.000E-02  1.288E+00
   1   12    7     6     4    1.3893E+01  2.3124E-01   1.3661E+01  0.000E+00  0.000E+00  0.000E+00  1.02994E+03  8.540E-01  1.200E+01  6.000E-02  1.285E+00
   1   13    7     6     5    1.3661E+01 -9.1148E-02   1.3752E+01  0.000E+00  0.000E+00  0.000E+00  1.02676E+03  8.514E-01  1.200E+01  2.400E-01 -1.266E-01
   1   14    9     7     1    1.5000E+02  1.3359E+00   1.4866E+02  0.000E+00  0.000E+00  0.000E+00  1.03987E+03  2.288E+00  5.529E+01  5.593E-01  7.962E-01
   1   13    8     7     2    1.4866E+02  1.8267E+00   1.4684E+02  0.000E+00  0.000E+00  0.000E+00  1.03478E+03  2.279E+00  5.526E+01  6.148E-01  9.905E-01
   1   13    7     7     3    1.4684E+02  1.4239E+00   1.4541E+02  0.000E+00  0.000E+00  0.000E+00  1.02969E+03  2.271E+00  5.522E+01  5.585E-01  8.499E-01
   1   13    6     8     1    1.5917E+02  7.8955E-01   1.5838E+02  0.000E+00  0.000E+00  0.000E+00  1.02475E+03  2.878E+00  4.172E+01  4.252E-01  6.190E-01
   1   13    5     8     2    1.5838E+02  5.4007E-02   1.5832E+02  0.000E+00  0.000E+00  0.000E+00  1.01850E+03  2.875E+00  4.168E+01  4.248E-01  4.238E-02
   1   13    4     8     3    1.5832E+02 -3.6227E+00   1.6195E+02  0.000E+00  0.000E+00  0.000E+00  1.01226E+03  2.887E+00  4.186E+01  4.265E+00 -2.831E-01
   1   13    3     8     4    1.6195E+02 -4.6999E+00   1.6664E+02  0.000E+00  0.000E+00  0.000E+00  1.00604E+03  2.915E+00  4.226E+01  4.307E+00 -3.638E-01
   1   13    2     8     5    1.6664E+02 -3.6868E+00   1.7033E+02  0.000E+00  0.000E+00  0.000E+00  9.99817E+02  2.942E+00  4.266E+01  4.348E+00 -2.827E-01
   1   13    1     8     6    1.7033E+02 -2.5763E+00   1.7291E+02  0.000E+00  0.000E+00  0.000E+00  9.94838E+02  2.963E+00  4.296E+01  2.627E+00 -3.269E-01
   1    8    6     9     1    5.5000E+01  0.0000E+00   5.5000E+01  0.000E+00  0.000E+00  0.000E+00  1.08505E+03  6.302E+00  4.000E+00  0.000E+00  3.101E+00
   1    8    5     9     2    5.5000E+01  0.0000E+00   5.5000E+01  0.000E+00  0.000E+00  0.000E+00  1.08455E+03  6.302E+00  4.000E+00  0.000E+00  3.101E+00





UNSATURATED ZONE PACKAGE VOLUMETRIC BUDGET FOR  TIME STEP    30 STRESS PERIOD    4
  ------------------------------------------------------------------------------



     CUMULATIVE VOLUMES      L**3       RATES FOR THIS TIME STEP      L**3/T
     ------------------                 ------------------------

           IN:                                      IN:
           ---                                      ---
        INFILTRATION =     6754914.0000          INFILTRATION =           0.8475

          OUT:                                     OUT:
          ----                                     ----
              UZF ET =       67583.3382                UZF ET =           0.0169
        UZF RECHARGE =     4274544.7353          UZF RECHARGE =           0.4932

            IN - OUT =     2412785.9265              IN - OUT =           0.3374

          STORAGE:                                 STORAGE:
          --------                                 --------
      STORAGE CHANGE =     2412785.9113        STORAGE CHANGE =           0.3374

 PERCENT DISCREPANCY IS DIFFERENCE BETWEEN IN-OUT MINUS CHANGE IN STORAGE
 DIVIDED BY THE AVERAGE OF IN AND OUT TIMES 100

 PERCENT DISCREPANCY =           0.00     PERCENT DISCREPANCY =           0.00






1
  VOLUMETRIC BUDGET FOR ENTIRE MODEL AT END OF TIME STEP   30, STRESS PERIOD   4
  ------------------------------------------------------------------------------

     CUMULATIVE VOLUMES      L**3       RATES FOR THIS TIME STEP      L**3/T
     ------------------                 ------------------------

           IN:                                      IN:
           ---                                      ---
               AWU WELLS =           0.0000                 AWU WELLS =           0.0000
      DIVERSION SEGMENTS =           0.0000        DIVERSION SEGMENTS =           0.0000
           GW IRRIGATION =           0.0000             GW IRRIGATION =           0.0000
           SW IRRIGATION =           0.0000             SW IRRIGATION =           0.0000
        SYSTEM LOSSES GW =           0.0000          SYSTEM LOSSES GW =           0.0000
        SYSTEM LOSSES SW =           0.0000          SYSTEM LOSSES SW =           0.0000

                TOTAL IN =           0.0000                  TOTAL IN =           0.0000

          OUT:                                     OUT:
          ----                                     ----
               AWU WELLS =           0.0000                 AWU WELLS =           0.0000
      DIVERSION SEGMENTS =           0.0000        DIVERSION SEGMENTS =           0.0000
           GW IRRIGATION =           0.0000             GW IRRIGATION =           0.0000
           SW IRRIGATION =           0.0000             SW IRRIGATION =           0.0000
        SYSTEM LOSSES GW =           0.0000          SYSTEM LOSSES GW =           0.0000
        SYSTEM LOSSES SW =           0.0000          SYSTEM LOSSES SW =           0.0000

               TOTAL OUT =           0.0000                 TOTAL OUT =           0.0000

                IN - OUT =           0.0000                  IN - OUT =           0.0000

     PERCENT DISCREPANCY =           0.00         PERCENT DISCREPANCY =           0.00



1
  VOLUMETRIC BUDGET FOR ENTIRE MODEL AT END OF TIME STEP   30, STRESS PERIOD   4
  ------------------------------------------------------------------------------

     CUMULATIVE VOLUMES      L**3       RATES FOR THIS TIME STEP      L**3/T
     ------------------                 ------------------------

           IN:                                      IN:
           ---                                      ---
             STORAGE     =     4184298.2500               STORAGE     =           4.8692
       CONSTANT HEAD     =           0.0000         CONSTANT HEAD     =           0.0000
     HEAD DEP BOUNDS     =     2277616.0000       HEAD DEP BOUNDS     =           0.2858
      STREAM LEAKAGE     =    99685448.0000        STREAM LEAKAGE     =          12.3579
        UZF RECHARGE     =     4274544.5000          UZF RECHARGE     =           0.4932
               GW ET     =           0.0000                 GW ET     =           0.0000
     SURFACE LEAKAGE     =           0.0000       SURFACE LEAKAGE     =           0.0000
           AWU WELLS     =           0.0000             AWU WELLS     =           0.0000

                TOTAL IN =   110421904.0000                  TOTAL IN =          18.0060

          OUT:                                     OUT:
          ----                                     ----
             STORAGE     =    28176126.0000               STORAGE     =           3.0217
       CONSTANT HEAD     =           0.0000         CONSTANT HEAD     =           0.0000
     HEAD DEP BOUNDS     =     2322103.5000       HEAD DEP BOUNDS     =           0.2971
      STREAM LEAKAGE     =    79765864.0000        STREAM LEAKAGE     =          14.6768
        UZF RECHARGE     =           0.0000          UZF RECHARGE     =           0.0000
               GW ET     =      165597.0781                 GW ET     =       1.0311E-02
     SURFACE LEAKAGE     =           0.0000       SURFACE LEAKAGE     =           0.0000
           AWU WELLS     =           0.0000             AWU WELLS     =           0.0000

               TOTAL OUT =   110429696.0000                 TOTAL OUT =          18.0060

                IN - OUT =       -7792.0000                  IN - OUT =       5.5313E-05

     PERCENT DISCREPANCY =          -0.01         PERCENT DISCREPANCY =           0.00






         TIME SUMMARY AT END OF TIME STEP   30 IN STRESS PERIOD    4
                    SECONDS     MINUTES      HOURS       DAYS        YEARS
                    -----------------------------------------------------------
   TIME STEP LENGTH  87600.      1460.0      24.333      1.0139     2.77588E-03
 STRESS PERIOD TIME 2.62800E+06  43800.      730.00      30.417     8.32763E-02
         TOTAL TIME 7.97040E+06 1.32840E+05  2214.0      92.250     0.25257    
1
1
                            STRESS PERIOD NO.    5, LENGTH =   2628000.    
                            -----------------------------------------------

                              NUMBER OF TIME STEPS =    30

                               MULTIPLIER FOR DELT =     1.000

                            INITIAL TIME STEP SIZE =   87600.00    

 REUSING NON-PARAMETER GHB CELLS FROM LAST STRESS PERIOD

      2 GHB CELLS

 REUSING STREAM SEGMENT DATA FROM LAST STRESS PERIOD



            AREAL INFILTRATION RATE
 READING ON UNIT   19 WITH FORMAT: (10F4.0)            

            1           2           3           4           5           6           7           8           9          10
 ........................................................................................................................
   1   1.0000E-10  2.0000E-10   0.000       0.000       0.000       0.000       0.000       0.000       0.000       0.000    
   2   2.0000E-10  1.0000E-10  2.0000E-10   0.000       0.000      8.0000E-10  8.0000E-10  5.0000E-10   0.000       0.000    
   3    0.000      5.0000E-10  1.0000E-10  1.0000E-10  8.0000E-10  8.0000E-10  5.0000E-10  5.0000E-10   0.000       0.000    
   4   8.0000E-10  5.0000E-10  1.0000E-10  1.0000E-10  1.0000E-10  1.0000E-10  1.0000E-10  1.0000E-10  2.0000E-10   0.000    
   5   8.0000E-10  5.0000E-10  1.0000E-10  1.0000E-10  1.0000E-10  1.0000E-10  1.0000E-10  1.0000E-10  1.0000E-10  1.0000E-10
   6   8.0000E-10  5.0000E-10  5.0000E-10  2.0000E-10  2.0000E-10  1.0000E-10  1.0000E-10  1.0000E-10  1.0000E-10  5.0000E-10
   7   8.0000E-10  5.0000E-10  5.0000E-10  2.0000E-10  2.0000E-10  1.0000E-10  1.0000E-10  2.0000E-10  2.0000E-10   0.000    
   8    0.000      5.0000E-10  5.0000E-10  2.0000E-10  2.0000E-10  1.0000E-10  1.0000E-10  2.0000E-10  5.0000E-10   0.000    
   9    0.000      5.0000E-10  5.0000E-10  2.0000E-10  2.0000E-10  1.0000E-10  1.0000E-10  2.0000E-10  5.0000E-10   0.000    
  10    0.000      5.0000E-10  5.0000E-10  2.0000E-10  2.0000E-10  1.0000E-10  1.0000E-10  2.0000E-10  5.0000E-10  8.0000E-10
  11    0.000      1.0000E-10  1.0000E-10  1.0000E-10  1.0000E-10  1.0000E-10  1.0000E-10  2.0000E-10  5.0000E-10   0.000    
  12   1.0000E-10  1.0000E-10  1.0000E-10  1.0000E-10  1.0000E-10  1.0000E-10  1.0000E-10  1.0000E-10  2.0000E-10   0.000    
  13   1.0000E-10  1.0000E-10  2.0000E-10  2.0000E-10  2.0000E-10  2.0000E-10  2.0000E-10  1.0000E-10  1.0000E-10   0.000    
  14    0.000      2.0000E-10  5.0000E-10  5.0000E-10  5.0000E-10  5.0000E-10  5.0000E-10  2.0000E-10  1.0000E-10   0.000    
  15    0.000       0.000      8.0000E-10  8.0000E-10  8.0000E-10  8.0000E-10   0.000       0.000       0.000       0.000    

                  ET RATE =  5.000000E-09

 USING ET EXTINCTION DEPTH FROM PREVIOUS STRESS PERIOD. CURRENT PERIOD IS:       5

 USING EXTINCTION WATER CONTENT FROM PREVIOUS STRESS PERIOD. CURRENT PERIOD IS:       5

 PROCESSING AWU STRESS PERIOD DATA

 READING AWU STRESS PERIOD DATA

 READING IRRIGATION STREAM

 READING IRRIGATION WELL

 READING SUPPLEMENTAL WEL

 END PROCESSING AWU STRESS PERIOD DATA OPTIONS
 
 SOLVING FOR HEAD 
                                                   Max.-Head-Change                         Max.-Flux-Residual
  Residual-Control   Outer-Iter.   Inner-Iter.     Column Row Layer    Maximum-Head-Change  Column Row Layer    Maximum-Flux-Residual          L2-NORM 
          0                 1           2             4    7     1      -0.1910683644E+00       4    8    1        -0.9992153820E+01      0.2457271922E+02
          0                 2           2             4    7     1       0.1848529598E-01       4    8    1         0.9971783643E+00      0.2450021332E+01
          0                 3           2             4    7     1      -0.1258782166E-02       4    8    1        -0.6980350408E-01      0.1714537561E+00
          0                 4           1             4    7     1       0.5008811126E-04       4    8    1         0.2854962710E-02      0.7010709649E-02

    ------------------------------------------------
       NWT REQUIRED            4 OUTER ITERATIONS 
       AND A TOTAL OF          7 INNER ITERATIONS.
    ------------------------------------------------

 OUTPUT CONTROL FOR STRESS PERIOD    5   TIME STEP    1
    PRINT BUDGET
    SAVE BUDGET
 UBDSV1 SAVING "         STORAGE" ON UNIT 102 AT TIME STEP  1, STRESS PERIOD   5
 UBDSV2 SAVING "   CONSTANT HEAD" ON UNIT 102 AT TIME STEP  1, STRESS PERIOD   5
 UBDSV1 SAVING "FLOW RIGHT FACE " ON UNIT 102 AT TIME STEP  1, STRESS PERIOD   5
 UBDSV1 SAVING "FLOW FRONT FACE " ON UNIT 102 AT TIME STEP  1, STRESS PERIOD   5

  HEAD DEP BOUNDS   PERIOD    5   STEP     1
 BOUNDARY      1   LAYER   1   ROW    13   COL     1   RATE   -0.296614    
 BOUNDARY      2   LAYER   1   ROW    14   COL     9   RATE    0.285766    



 STREAM LISTING     PERIOD      5   STEP        1

 LAYER ROW COL. STREAM  RCH.  FLOW INTO     FLOW TO   FLOW OUT OF   OVRLND.     DIRECT     STREAM       STREAM     STREAM     STREAM   STREAMBED  STREAMBED
                SEG.NO.  NO.  STRM. RCH.    AQUIFER    STRM. RCH.    RUNOFF     PRECIP       ET          HEAD       DEPTH      WIDTH   CONDCTNC.   GRADIENT

   1    1    1     1     1    2.8000E+01  2.5860E-01   2.7741E+01  0.000E+00  0.000E+00  0.000E+00  1.09427E+03  1.221E+00  1.361E+01  6.126E-02  1.407E+00
   1    2    2     1     2    2.7741E+01  4.0002E-01   2.7341E+01  0.000E+00  0.000E+00  0.000E+00  1.08928E+03  1.217E+00  1.355E+01  9.487E-02  1.406E+00
   1    3    3     1     3    2.7341E+01  3.4070E-01   2.7001E+01  0.000E+00  0.000E+00  0.000E+00  1.08363E+03  1.212E+00  1.348E+01  8.090E-02  1.404E+00
   1    3    4     1     4    2.7001E+01  3.1335E-01   2.6687E+01  0.000E+00  0.000E+00  0.000E+00  1.07861E+03  1.207E+00  1.342E+01  7.448E-02  1.402E+00
   1    4    5     2     1    2.4687E+01  3.2711E-01   2.4360E+01  0.000E+00  0.000E+00  0.000E+00  1.07313E+03  1.194E+00  1.200E+01  7.800E-02  1.398E+00
   1    5    6     2     2    2.4360E+01  2.5111E-01   2.4109E+01  0.000E+00  0.000E+00  0.000E+00  1.06769E+03  1.185E+00  1.200E+01  6.000E-02  1.395E+00
   1    6    6     2     3    2.4109E+01  2.5067E-01   2.3858E+01  0.000E+00  0.000E+00  0.000E+00  1.06297E+03  1.178E+00  1.200E+01  6.000E-02  1.393E+00
   1    7    6     2     4    2.3858E+01  2.5023E-01   2.3608E+01  0.000E+00  0.000E+00  0.000E+00  1.05825E+03  1.170E+00  1.200E+01  6.000E-02  1.390E+00
   1    8    6     2     5    2.3608E+01  2.4978E-01   2.3358E+01  0.000E+00  0.000E+00  0.000E+00  1.05352E+03  1.163E+00  1.200E+01  6.000E-02  1.388E+00
   1    3    5     3     1    2.0000E+00  2.8252E-01   1.7175E+00  0.000E+00  0.000E+00  0.000E+00  1.07555E+03  1.909E+00  9.636E+00  7.227E-02  1.955E+00
   1    3    6     3     2    1.7175E+00  2.4905E-01   1.4684E+00  0.000E+00  0.000E+00  0.000E+00  1.07264E+03  1.727E+00  8.909E+00  6.682E-02  1.864E+00
   1    3    7     3     3    1.4684E+00  1.9718E-01   1.2712E+00  0.000E+00  0.000E+00  0.000E+00  1.06987E+03  1.555E+00  8.218E+00  5.547E-02  1.777E+00
   1    4    8     3     4    1.2712E+00  2.2567E-01   1.0456E+00  0.000E+00  0.000E+00  0.000E+00  1.06682E+03  1.364E+00  7.455E+00  6.709E-02  1.682E+00
   1    5    8     3     5    1.0456E+00  1.5790E-01   8.8768E-01  0.000E+00  0.000E+00  0.000E+00  1.06362E+03  1.164E+00  6.655E+00  4.991E-02  1.582E+00
   1    6    8     3     6    8.8768E-01  5.5980E-02   8.3170E-01  0.000E+00  0.000E+00  0.000E+00  1.06158E+03  1.036E+00  6.145E+00  1.844E-02  1.518E+00
   1    5   10     4     1    1.0000E+01  9.0919E-02   9.9091E+00  0.000E+00  0.000E+00  0.000E+00  1.07836E+03  6.368E-01  1.000E+01  2.500E-02  1.212E+00
   1    5    9     4     2    9.9091E+00  1.8158E-01   9.7275E+00  0.000E+00  0.000E+00  0.000E+00  1.07154E+03  6.315E-01  1.000E+01  5.000E-02  1.211E+00
   1    6    8     4     3    9.7275E+00  1.2689E-01   9.6006E+00  0.000E+00  0.000E+00  0.000E+00  1.06381E+03  6.256E-01  1.000E+01  3.500E-02  1.209E+00
   1    6    8     5     1    1.0432E+01  2.2686E-01   1.0205E+01  0.000E+00  0.000E+00  0.000E+00  1.05868E+03  6.790E-01  1.542E+01  6.166E-02  1.226E+00
   1    7    7     5     2    1.0205E+01  2.7894E-01   9.9265E+00  0.000E+00  0.000E+00  0.000E+00  1.05417E+03  6.732E-01  1.519E+01  7.594E-02  1.224E+00
   1    8    7     5     3    9.9265E+00  1.9221E-01   9.7343E+00  0.000E+00  0.000E+00  0.000E+00  1.04992E+03  6.676E-01  1.497E+01  5.241E-02  1.223E+00
   1    8    6     5     4    9.7343E+00  1.3577E-01   9.5985E+00  0.000E+00  0.000E+00  0.000E+00  1.04691E+03  6.637E-01  1.482E+01  3.706E-02  1.221E+00
   1    9    6     6     1    9.5985E+00  2.2097E-01   9.3776E+00  0.000E+00  0.000E+00  0.000E+00  1.04341E+03  6.828E-01  1.200E+01  6.000E-02  1.228E+00
   1   10    7     6     2    9.3776E+00  2.2039E-01   9.1572E+00  0.000E+00  0.000E+00  0.000E+00  1.03885E+03  6.732E-01  1.200E+01  6.000E-02  1.224E+00
   1   11    7     6     3    9.1572E+00  2.1981E-01   8.9374E+00  0.000E+00  0.000E+00  0.000E+00  1.03430E+03  6.636E-01  1.200E+01  6.000E-02  1.221E+00
   1   12    7     6     4    8.9374E+00  2.1923E-01   8.7181E+00  0.000E+00  0.000E+00  0.000E+00  1.02974E+03  6.539E-01  1.200E+01  6.000E-02  1.218E+00
   1   13    7     6     5    8.7181E+00 -1.3849E-01   8.8566E+00  0.000E+00  0.000E+00  0.000E+00  1.02656E+03  6.521E-01  1.200E+01  2.400E-01 -1.923E-01
   1   14    9     7     1    1.5000E+02  1.3359E+00   1.4866E+02  0.000E+00  0.000E+00  0.000E+00  1.03987E+03  2.288E+00  5.529E+01  5.593E-01  7.962E-01
   1   13    8     7     2    1.4866E+02  1.8265E+00   1.4684E+02  0.000E+00  0.000E+00  0.000E+00  1.03478E+03  2.279E+00  5.526E+01  6.148E-01  9.904E-01
   1   13    7     7     3    1.4684E+02  1.4251E+00   1.4541E+02  0.000E+00  0.000E+00  0.000E+00  1.02969E+03  2.271E+00  5.522E+01  5.585E-01  8.506E-01
   1   13    6     8     1    1.5427E+02  7.6792E-01   1.5350E+02  0.000E+00  0.000E+00  0.000E+00  1.02472E+03  2.844E+00  4.124E+01  4.202E-01  6.091E-01
   1   13    5     8     2    1.5350E+02  4.0843E-02   1.5346E+02  0.000E+00  0.000E+00  0.000E+00  1.01847E+03  2.841E+00  4.120E+01  4.198E-01  3.243E-02
   1   13    4     8     3    1.5346E+02 -3.6277E+00   1.5709E+02  0.000E+00  0.000E+00  0.000E+00  1.01223E+03  2.854E+00  4.138E+01  4.216E+00 -2.868E-01
   1   13    3     8     4    1.5709E+02 -4.7002E+00   1.6179E+02  0.000E+00  0.000E+00  0.000E+00  1.00601E+03  2.882E+00  4.179E+01  4.259E+00 -3.679E-01
   1   13    2     8     5    1.6179E+02 -3.6939E+00   1.6548E+02  0.000E+00  0.000E+00  0.000E+00  9.99785E+02  2.910E+00  4.220E+01  4.300E+00 -2.863E-01
   1   13    1     8     6    1.6548E+02 -2.5973E+00   1.6808E+02  0.000E+00  0.000E+00  0.000E+00  9.94806E+02  2.931E+00  4.250E+01  2.599E+00 -3.332E-01
   1    8    6     9     1    2.3358E+01  0.0000E+00   2.3358E+01  0.000E+00  0.000E+00  0.000E+00  1.08252E+03  3.770E+00  4.000E+00  0.000E+00  2.257E+00
   1    8    5     9     2    2.3358E+01  0.0000E+00   2.3358E+01  0.000E+00  0.000E+00  0.000E+00  1.08202E+03  3.770E+00  4.000E+00  0.000E+00  2.257E+00



 UBDSV3 SAVING "           GW ET" ON UNIT  61 AT TIME STEP  1, STRESS PERIOD   5
 UBDSV3 SAVING "    UZF RECHARGE" ON UNIT  61 AT TIME STEP  1, STRESS PERIOD   5
 UBDSV3 SAVING " SURFACE LEAKAGE" ON UNIT  61 AT TIME STEP  1, STRESS PERIOD   5
 UBDSV3 SAVING "       HORT+DUNN" ON UNIT  61 AT TIME STEP  1, STRESS PERIOD   5
 UBDSV3 SAVING "  STORAGE CHANGE" ON UNIT  61 AT TIME STEP  1, STRESS PERIOD   5


UNSATURATED ZONE PACKAGE VOLUMETRIC BUDGET FOR  TIME STEP     1 STRESS PERIOD    5
  ------------------------------------------------------------------------------



     CUMULATIVE VOLUMES      L**3       RATES FOR THIS TIME STEP      L**3/T
     ------------------                 ------------------------

           IN:                                      IN:
           ---                                      ---
        INFILTRATION =    14131393.5000          INFILTRATION =          84.2064

          OUT:                                     OUT:
          ----                                     ----
              UZF ET =      147245.1965                UZF ET =           0.9094
        UZF RECHARGE =     4303635.9849          UZF RECHARGE =           0.3321

            IN - OUT =     9680512.3185              IN - OUT =          82.9649

          STORAGE:                                 STORAGE:
          --------                                 --------
      STORAGE CHANGE =     9680512.2342        STORAGE CHANGE =          82.9649

 PERCENT DISCREPANCY IS DIFFERENCE BETWEEN IN-OUT MINUS CHANGE IN STORAGE
 DIVIDED BY THE AVERAGE OF IN AND OUT TIMES 100

 PERCENT DISCREPANCY =           0.00     PERCENT DISCREPANCY =           0.00






 

            AWU WELLS     PERIOD    5   STEP   1
 AWU WELL      1   LAYER   1   ROW     6   COL     4   RATE    -10.0000    
 AWU WELL      2   LAYER   1   ROW     6   COL     5   RATE    -10.0000    
 AWU WELL      3   LAYER   1   ROW     7   COL     4   RATE    -10.0000    
 AWU WELL      4   LAYER   1   ROW     7   COL     5   RATE    -10.0000    
 AWU WELL      5   LAYER   1   ROW     8   COL     4   RATE    -10.0000    
 AWU WELL      6   LAYER   1   ROW     8   COL     5   RATE    -10.0000    
 
 

   DIVERSION SEGMENTS     PERIOD    5   STEP   1
 SEGMENT      9   RATE     23.3584    
 
 

        SW IRRIGATION     PERIOD    5   STEP   1
 SEGMENT      9   ROW     6   COL     4   RATE     3.89315    
 SEGMENT      9   ROW     6   COL     5   RATE     3.89315    
 SEGMENT      9   ROW     7   COL     4   RATE     3.89315    
 SEGMENT      9   ROW     7   COL     5   RATE     3.89315    
 SEGMENT      9   ROW     8   COL     4   RATE     3.89315    
 SEGMENT      9   ROW     8   COL     5   RATE     3.89315    
 
 

        GW IRRIGATION     PERIOD    5   STEP   1
 AWU WELL      1   ROW     6   COL     4   RATE     10.0000    
 AWU WELL      2   ROW     6   COL     5   RATE     10.0000    
 AWU WELL      3   ROW     7   COL     4   RATE     10.0000    
 AWU WELL      4   ROW     7   COL     5   RATE     10.0000    
 AWU WELL      5   ROW     8   COL     4   RATE     10.0000    
 AWU WELL      6   ROW     8   COL     5   RATE     10.0000    
 
1
  VOLUMETRIC BUDGET FOR ENTIRE MODEL AT END OF TIME STEP    1, STRESS PERIOD   5
  ------------------------------------------------------------------------------

     CUMULATIVE VOLUMES      L**3       RATES FOR THIS TIME STEP      L**3/T
     ------------------                 ------------------------

           IN:                                      IN:
           ---                                      ---
               AWU WELLS =     5256000.0000                 AWU WELLS =          60.0000
      DIVERSION SEGMENTS =     2046197.2500        DIVERSION SEGMENTS =          23.3584
           GW IRRIGATION =           0.0000             GW IRRIGATION =           0.0000
           SW IRRIGATION =           0.0000             SW IRRIGATION =           0.0000
        SYSTEM LOSSES GW =           0.0000          SYSTEM LOSSES GW =           0.0000
        SYSTEM LOSSES SW =           0.0000          SYSTEM LOSSES SW =           0.0000

                TOTAL IN =     7302197.0000                  TOTAL IN =          83.3584

          OUT:                                     OUT:
          ----                                     ----
               AWU WELLS =           0.0000                 AWU WELLS =           0.0000
      DIVERSION SEGMENTS =           0.0000        DIVERSION SEGMENTS =           0.0000
           GW IRRIGATION =     5256000.0000             GW IRRIGATION =          60.0000
           SW IRRIGATION =     2046238.0000             SW IRRIGATION =          23.3589
        SYSTEM LOSSES GW =           0.0000          SYSTEM LOSSES GW =           0.0000
        SYSTEM LOSSES SW =           0.0000          SYSTEM LOSSES SW =           0.0000

               TOTAL OUT =     7302238.0000                 TOTAL OUT =          83.3589

                IN - OUT =         -41.0000                  IN - OUT =      -4.7302E-04

     PERCENT DISCREPANCY =          -0.00         PERCENT DISCREPANCY =          -0.00



1
  VOLUMETRIC BUDGET FOR ENTIRE MODEL AT END OF TIME STEP    1, STRESS PERIOD   5
  ------------------------------------------------------------------------------

     CUMULATIVE VOLUMES      L**3       RATES FOR THIS TIME STEP      L**3/T
     ------------------                 ------------------------

           IN:                                      IN:
           ---                                      ---
             STORAGE     =     9911775.0000               STORAGE     =          65.3822
       CONSTANT HEAD     =           0.0000         CONSTANT HEAD     =           0.0000
     HEAD DEP BOUNDS     =     2302649.0000       HEAD DEP BOUNDS     =           0.2858
      STREAM LEAKAGE     =   100677056.0000        STREAM LEAKAGE     =          11.3197
        UZF RECHARGE     =     4303636.0000          UZF RECHARGE     =           0.3321
               GW ET     =           0.0000                 GW ET     =           0.0000
     SURFACE LEAKAGE     =           0.0000       SURFACE LEAKAGE     =           0.0000
           AWU WELLS     =           0.0000             AWU WELLS     =           0.0000

                TOTAL IN =   117195120.0000                  TOTAL IN =          77.3197

          OUT:                                     OUT:
          ----                                     ----
             STORAGE     =    28329636.0000               STORAGE     =           1.7524
       CONSTANT HEAD     =           0.0000         CONSTANT HEAD     =           0.0000
     HEAD DEP BOUNDS     =     2348086.7500       HEAD DEP BOUNDS     =           0.2966
      STREAM LEAKAGE     =    81058632.0000        STREAM LEAKAGE     =          14.7577
        UZF RECHARGE     =           0.0000          UZF RECHARGE     =           0.0000
               GW ET     =      210555.3125                 GW ET     =           0.5132
     SURFACE LEAKAGE     =           0.0000       SURFACE LEAKAGE     =           0.0000
           AWU WELLS     =     5256000.0000             AWU WELLS     =          60.0000

               TOTAL OUT =   117202904.0000                 TOTAL OUT =          77.3199

                IN - OUT =       -7784.0000                  IN - OUT =      -1.6022E-04

     PERCENT DISCREPANCY =          -0.01         PERCENT DISCREPANCY =          -0.00






         TIME SUMMARY AT END OF TIME STEP    1 IN STRESS PERIOD    5
                    SECONDS     MINUTES      HOURS       DAYS        YEARS
                    -----------------------------------------------------------
   TIME STEP LENGTH  87600.      1460.0      24.333      1.0139     2.77588E-03
 STRESS PERIOD TIME  87600.      1460.0      24.333      1.0139     2.77588E-03
         TOTAL TIME 8.05800E+06 1.34300E+05  2238.3      93.264     0.25534    
1
 
 SOLVING FOR HEAD 
                                                   Max.-Head-Change                         Max.-Flux-Residual
  Residual-Control   Outer-Iter.   Inner-Iter.     Column Row Layer    Maximum-Head-Change  Column Row Layer    Maximum-Flux-Residual          L2-NORM 
          0                 1           2             4    7     1      -0.1901453628E+00       4    7    1        -0.9940771425E+01      0.2410543989E+02
          0                 2           2             4    7     1       0.1849447549E-01       4    7    1         0.9940613451E+00      0.2407587199E+01
          0                 3           2             4    7     1      -0.1259407723E-02       4    7    1        -0.6958447681E-01      0.1684894654E+00
          0                 4           1             4    7     1       0.5011300023E-04       4    7    1         0.2846008357E-02      0.6889792500E-02

    ------------------------------------------------
       NWT REQUIRED            4 OUTER ITERATIONS 
       AND A TOTAL OF          7 INNER ITERATIONS.
    ------------------------------------------------

 OUTPUT CONTROL FOR STRESS PERIOD    5   TIME STEP    2
    PRINT BUDGET
    SAVE BUDGET
 UBDSV1 SAVING "         STORAGE" ON UNIT 102 AT TIME STEP  2, STRESS PERIOD   5
 UBDSV2 SAVING "   CONSTANT HEAD" ON UNIT 102 AT TIME STEP  2, STRESS PERIOD   5
 UBDSV1 SAVING "FLOW RIGHT FACE " ON UNIT 102 AT TIME STEP  2, STRESS PERIOD   5
 UBDSV1 SAVING "FLOW FRONT FACE " ON UNIT 102 AT TIME STEP  2, STRESS PERIOD   5

  HEAD DEP BOUNDS   PERIOD    5   STEP     2
 BOUNDARY      1   LAYER   1   ROW    13   COL     1   RATE   -0.296141    
 BOUNDARY      2   LAYER   1   ROW    14   COL     9   RATE    0.285765    



 STREAM LISTING     PERIOD      5   STEP        2

 LAYER ROW COL. STREAM  RCH.  FLOW INTO     FLOW TO   FLOW OUT OF   OVRLND.     DIRECT     STREAM       STREAM     STREAM     STREAM   STREAMBED  STREAMBED
                SEG.NO.  NO.  STRM. RCH.    AQUIFER    STRM. RCH.    RUNOFF     PRECIP       ET          HEAD       DEPTH      WIDTH   CONDCTNC.   GRADIENT

   1    1    1     1     1    2.8000E+01  2.5860E-01   2.7741E+01  0.000E+00  0.000E+00  0.000E+00  1.09427E+03  1.221E+00  1.361E+01  6.126E-02  1.407E+00
   1    2    2     1     2    2.7741E+01  4.0002E-01   2.7341E+01  0.000E+00  0.000E+00  0.000E+00  1.08928E+03  1.217E+00  1.355E+01  9.487E-02  1.406E+00
   1    3    3     1     3    2.7341E+01  3.4070E-01   2.7001E+01  0.000E+00  0.000E+00  0.000E+00  1.08363E+03  1.212E+00  1.348E+01  8.090E-02  1.404E+00
   1    3    4     1     4    2.7001E+01  3.1335E-01   2.6687E+01  0.000E+00  0.000E+00  0.000E+00  1.07861E+03  1.207E+00  1.342E+01  7.448E-02  1.402E+00
   1    4    5     2     1    2.4687E+01  3.2711E-01   2.4360E+01  0.000E+00  0.000E+00  0.000E+00  1.07313E+03  1.194E+00  1.200E+01  7.800E-02  1.398E+00
   1    5    6     2     2    2.4360E+01  2.5111E-01   2.4109E+01  0.000E+00  0.000E+00  0.000E+00  1.06769E+03  1.185E+00  1.200E+01  6.000E-02  1.395E+00
   1    6    6     2     3    2.4109E+01  2.5067E-01   2.3858E+01  0.000E+00  0.000E+00  0.000E+00  1.06297E+03  1.178E+00  1.200E+01  6.000E-02  1.393E+00
   1    7    6     2     4    2.3858E+01  2.5023E-01   2.3608E+01  0.000E+00  0.000E+00  0.000E+00  1.05825E+03  1.170E+00  1.200E+01  6.000E-02  1.390E+00
   1    8    6     2     5    2.3608E+01  2.4978E-01   2.3358E+01  0.000E+00  0.000E+00  0.000E+00  1.05352E+03  1.163E+00  1.200E+01  6.000E-02  1.388E+00
   1    3    5     3     1    2.0000E+00  2.8252E-01   1.7175E+00  0.000E+00  0.000E+00  0.000E+00  1.07555E+03  1.909E+00  9.636E+00  7.227E-02  1.955E+00
   1    3    6     3     2    1.7175E+00  2.4905E-01   1.4684E+00  0.000E+00  0.000E+00  0.000E+00  1.07264E+03  1.727E+00  8.909E+00  6.682E-02  1.864E+00
   1    3    7     3     3    1.4684E+00  1.9718E-01   1.2712E+00  0.000E+00  0.000E+00  0.000E+00  1.06987E+03  1.555E+00  8.218E+00  5.547E-02  1.777E+00
   1    4    8     3     4    1.2712E+00  2.2567E-01   1.0456E+00  0.000E+00  0.000E+00  0.000E+00  1.06682E+03  1.364E+00  7.455E+00  6.709E-02  1.682E+00
   1    5    8     3     5    1.0456E+00  1.5790E-01   8.8768E-01  0.000E+00  0.000E+00  0.000E+00  1.06362E+03  1.164E+00  6.655E+00  4.991E-02  1.582E+00
   1    6    8     3     6    8.8768E-01  5.5980E-02   8.3170E-01  0.000E+00  0.000E+00  0.000E+00  1.06158E+03  1.036E+00  6.145E+00  1.844E-02  1.518E+00
   1    5   10     4     1    1.0000E+01  9.0919E-02   9.9091E+00  0.000E+00  0.000E+00  0.000E+00  1.07836E+03  6.368E-01  1.000E+01  2.500E-02  1.212E+00
   1    5    9     4     2    9.9091E+00  1.8158E-01   9.7275E+00  0.000E+00  0.000E+00  0.000E+00  1.07154E+03  6.315E-01  1.000E+01  5.000E-02  1.211E+00
   1    6    8     4     3    9.7275E+00  1.2689E-01   9.6006E+00  0.000E+00  0.000E+00  0.000E+00  1.06381E+03  6.256E-01  1.000E+01  3.500E-02  1.209E+00
   1    6    8     5     1    1.0432E+01  2.2686E-01   1.0205E+01  0.000E+00  0.000E+00  0.000E+00  1.05868E+03  6.790E-01  1.542E+01  6.166E-02  1.226E+00
   1    7    7     5     2    1.0205E+01  2.7894E-01   9.9265E+00  0.000E+00  0.000E+00  0.000E+00  1.05417E+03  6.732E-01  1.519E+01  7.594E-02  1.224E+00
   1    8    7     5     3    9.9265E+00  1.9221E-01   9.7343E+00  0.000E+00  0.000E+00  0.000E+00  1.04992E+03  6.676E-01  1.497E+01  5.241E-02  1.223E+00
   1    8    6     5     4    9.7343E+00  1.3577E-01   9.5985E+00  0.000E+00  0.000E+00  0.000E+00  1.04691E+03  6.637E-01  1.482E+01  3.706E-02  1.221E+00
   1    9    6     6     1    9.5985E+00  2.2097E-01   9.3776E+00  0.000E+00  0.000E+00  0.000E+00  1.04341E+03  6.828E-01  1.200E+01  6.000E-02  1.228E+00
   1   10    7     6     2    9.3776E+00  2.2039E-01   9.1572E+00  0.000E+00  0.000E+00  0.000E+00  1.03885E+03  6.732E-01  1.200E+01  6.000E-02  1.224E+00
   1   11    7     6     3    9.1572E+00  2.1981E-01   8.9374E+00  0.000E+00  0.000E+00  0.000E+00  1.03430E+03  6.636E-01  1.200E+01  6.000E-02  1.221E+00
   1   12    7     6     4    8.9374E+00  2.1923E-01   8.7181E+00  0.000E+00  0.000E+00  0.000E+00  1.02974E+03  6.539E-01  1.200E+01  6.000E-02  1.218E+00
   1   13    7     6     5    8.7181E+00 -1.3801E-01   8.8561E+00  0.000E+00  0.000E+00  0.000E+00  1.02656E+03  6.520E-01  1.200E+01  2.400E-01 -1.917E-01
   1   14    9     7     1    1.5000E+02  1.3359E+00   1.4866E+02  0.000E+00  0.000E+00  0.000E+00  1.03987E+03  2.288E+00  5.529E+01  5.593E-01  7.962E-01
   1   13    8     7     2    1.4866E+02  1.8263E+00   1.4684E+02  0.000E+00  0.000E+00  0.000E+00  1.03478E+03  2.279E+00  5.526E+01  6.148E-01  9.903E-01
   1   13    7     7     3    1.4684E+02  1.4262E+00   1.4541E+02  0.000E+00  0.000E+00  0.000E+00  1.02969E+03  2.271E+00  5.522E+01  5.585E-01  8.513E-01
   1   13    6     8     1    1.5427E+02  7.6952E-01   1.5350E+02  0.000E+00  0.000E+00  0.000E+00  1.02472E+03  2.844E+00  4.124E+01  4.202E-01  6.104E-01
   1   13    5     8     2    1.5350E+02  4.2383E-02   1.5346E+02  0.000E+00  0.000E+00  0.000E+00  1.01847E+03  2.841E+00  4.120E+01  4.198E-01  3.365E-02
   1   13    4     8     3    1.5346E+02 -3.5440E+00   1.5700E+02  0.000E+00  0.000E+00  0.000E+00  1.01223E+03  2.853E+00  4.137E+01  4.216E+00 -2.802E-01
   1   13    3     8     4    1.5700E+02 -4.6232E+00   1.6162E+02  0.000E+00  0.000E+00  0.000E+00  1.00601E+03  2.881E+00  4.178E+01  4.257E+00 -3.620E-01
   1   13    2     8     5    1.6162E+02 -3.6140E+00   1.6524E+02  0.000E+00  0.000E+00  0.000E+00  9.99784E+02  2.909E+00  4.218E+01  4.298E+00 -2.803E-01
   1   13    1     8     6    1.6524E+02 -2.5680E+00   1.6780E+02  0.000E+00  0.000E+00  0.000E+00  9.94804E+02  2.929E+00  4.248E+01  2.597E+00 -3.296E-01
   1    8    6     9     1    2.3358E+01  0.0000E+00   2.3358E+01  0.000E+00  0.000E+00  0.000E+00  1.08252E+03  3.770E+00  4.000E+00  0.000E+00  2.257E+00
   1    8    5     9     2    2.3358E+01  0.0000E+00   2.3358E+01  0.000E+00  0.000E+00  0.000E+00  1.08202E+03  3.770E+00  4.000E+00  0.000E+00  2.257E+00



 UBDSV3 SAVING "           GW ET" ON UNIT  61 AT TIME STEP  2, STRESS PERIOD   5
 UBDSV3 SAVING "    UZF RECHARGE" ON UNIT  61 AT TIME STEP  2, STRESS PERIOD   5
 UBDSV3 SAVING " SURFACE LEAKAGE" ON UNIT  61 AT TIME STEP  2, STRESS PERIOD   5
 UBDSV3 SAVING "       HORT+DUNN" ON UNIT  61 AT TIME STEP  2, STRESS PERIOD   5
 UBDSV3 SAVING "  STORAGE CHANGE" ON UNIT  61 AT TIME STEP  2, STRESS PERIOD   5


UNSATURATED ZONE PACKAGE VOLUMETRIC BUDGET FOR  TIME STEP     2 STRESS PERIOD    5
  ------------------------------------------------------------------------------



     CUMULATIVE VOLUMES      L**3       RATES FOR THIS TIME STEP      L**3/T
     ------------------                 ------------------------

           IN:                                      IN:
           ---                                      ---
        INFILTRATION =    21507873.0000          INFILTRATION =          84.2064

          OUT:                                     OUT:
          ----                                     ----
              UZF ET =      235618.4070                UZF ET =           1.0088
        UZF RECHARGE =     4331684.9346          UZF RECHARGE =           0.3202

            IN - OUT =    16940569.6584              IN - OUT =          82.8774

          STORAGE:                                 STORAGE:
          --------                                 --------
      STORAGE CHANGE =    16940569.5037        STORAGE CHANGE =          82.8774

 PERCENT DISCREPANCY IS DIFFERENCE BETWEEN IN-OUT MINUS CHANGE IN STORAGE
 DIVIDED BY THE AVERAGE OF IN AND OUT TIMES 100

 PERCENT DISCREPANCY =           0.00     PERCENT DISCREPANCY =           0.00






 

            AWU WELLS     PERIOD    5   STEP   2
 AWU WELL      1   LAYER   1   ROW     6   COL     4   RATE    -10.0000    
 AWU WELL      2   LAYER   1   ROW     6   COL     5   RATE    -10.0000    
 AWU WELL      3   LAYER   1   ROW     7   COL     4   RATE    -10.0000    
 AWU WELL      4   LAYER   1   ROW     7   COL     5   RATE    -10.0000    
 AWU WELL      5   LAYER   1   ROW     8   COL     4   RATE    -10.0000    
 AWU WELL      6   LAYER   1   ROW     8   COL     5   RATE    -10.0000    
 
 

   DIVERSION SEGMENTS     PERIOD    5   STEP   2
 SEGMENT      9   RATE     23.3584    
 
 

        SW IRRIGATION     PERIOD    5   STEP   2
 SEGMENT      9   ROW     6   COL     4   RATE     3.89315    
 SEGMENT      9   ROW     6   COL     5   RATE     3.89315    
 SEGMENT      9   ROW     7   COL     4   RATE     3.89315    
 SEGMENT      9   ROW     7   COL     5   RATE     3.89315    
 SEGMENT      9   ROW     8   COL     4   RATE     3.89315    
 SEGMENT      9   ROW     8   COL     5   RATE     3.89315    
 
 

        GW IRRIGATION     PERIOD    5   STEP   2
 AWU WELL      1   ROW     6   COL     4   RATE     10.0000    
 AWU WELL      2   ROW     6   COL     5   RATE     10.0000    
 AWU WELL      3   ROW     7   COL     4   RATE     10.0000    
 AWU WELL      4   ROW     7   COL     5   RATE     10.0000    
 AWU WELL      5   ROW     8   COL     4   RATE     10.0000    
 AWU WELL      6   ROW     8   COL     5   RATE     10.0000    
 
1
  VOLUMETRIC BUDGET FOR ENTIRE MODEL AT END OF TIME STEP    2, STRESS PERIOD   5
  ------------------------------------------------------------------------------

     CUMULATIVE VOLUMES      L**3       RATES FOR THIS TIME STEP      L**3/T
     ------------------                 ------------------------

           IN:                                      IN:
           ---                                      ---
               AWU WELLS =    10512000.0000                 AWU WELLS =          60.0000
      DIVERSION SEGMENTS =     4092394.5000        DIVERSION SEGMENTS =          23.3584
           GW IRRIGATION =           0.0000             GW IRRIGATION =           0.0000
           SW IRRIGATION =           0.0000             SW IRRIGATION =           0.0000
        SYSTEM LOSSES GW =           0.0000          SYSTEM LOSSES GW =           0.0000
        SYSTEM LOSSES SW =           0.0000          SYSTEM LOSSES SW =           0.0000

                TOTAL IN =    14604394.0000                  TOTAL IN =          83.3584

          OUT:                                     OUT:
          ----                                     ----
               AWU WELLS =           0.0000                 AWU WELLS =           0.0000
      DIVERSION SEGMENTS =           0.0000        DIVERSION SEGMENTS =           0.0000
           GW IRRIGATION =    10512000.0000             GW IRRIGATION =          60.0000
           SW IRRIGATION =     4092476.0000             SW IRRIGATION =          23.3589
        SYSTEM LOSSES GW =           0.0000          SYSTEM LOSSES GW =           0.0000
        SYSTEM LOSSES SW =           0.0000          SYSTEM LOSSES SW =           0.0000

               TOTAL OUT =    14604476.0000                 TOTAL OUT =          83.3589

                IN - OUT =         -82.0000                  IN - OUT =      -4.7302E-04

     PERCENT DISCREPANCY =          -0.00         PERCENT DISCREPANCY =          -0.00



1
  VOLUMETRIC BUDGET FOR ENTIRE MODEL AT END OF TIME STEP    2, STRESS PERIOD   5
  ------------------------------------------------------------------------------

     CUMULATIVE VOLUMES      L**3       RATES FOR THIS TIME STEP      L**3/T
     ------------------                 ------------------------

           IN:                                      IN:
           ---                                      ---
             STORAGE     =    15607468.0000               STORAGE     =          65.0193
       CONSTANT HEAD     =           0.0000         CONSTANT HEAD     =           0.0000
     HEAD DEP BOUNDS     =     2327682.0000       HEAD DEP BOUNDS     =           0.2858
      STREAM LEAKAGE     =   101669024.0000        STREAM LEAKAGE     =          11.3238
        UZF RECHARGE     =     4331685.0000          UZF RECHARGE     =           0.3202
               GW ET     =           0.0000                 GW ET     =           0.0000
     SURFACE LEAKAGE     =           0.0000       SURFACE LEAKAGE     =           0.0000
           AWU WELLS     =           0.0000             AWU WELLS     =           0.0000

                TOTAL IN =   123935864.0000                  TOTAL IN =          76.9491

          OUT:                                     OUT:
          ----                                     ----
             STORAGE     =    28474606.0000               STORAGE     =           1.6549
       CONSTANT HEAD     =           0.0000         CONSTANT HEAD     =           0.0000
     HEAD DEP BOUNDS     =     2374028.7500       HEAD DEP BOUNDS     =           0.2961
      STREAM LEAKAGE     =    82327712.0000        STREAM LEAKAGE     =          14.4872
        UZF RECHARGE     =           0.0000          UZF RECHARGE     =           0.0000
               GW ET     =      255321.8281                 GW ET     =           0.5110
     SURFACE LEAKAGE     =           0.0000       SURFACE LEAKAGE     =           0.0000
           AWU WELLS     =    10512000.0000             AWU WELLS     =          60.0000

               TOTAL OUT =   123943664.0000                 TOTAL OUT =          76.9493

                IN - OUT =       -7800.0000                  IN - OUT =      -1.7548E-04

     PERCENT DISCREPANCY =          -0.01         PERCENT DISCREPANCY =          -0.00






         TIME SUMMARY AT END OF TIME STEP    2 IN STRESS PERIOD    5
                    SECONDS     MINUTES      HOURS       DAYS        YEARS
                    -----------------------------------------------------------
   TIME STEP LENGTH  87600.      1460.0      24.333      1.0139     2.77588E-03
 STRESS PERIOD TIME 1.75200E+05  2920.0      48.667      2.0278     5.55175E-03
         TOTAL TIME 8.14560E+06 1.35760E+05  2262.7      94.278     0.25812    
1
 
 SOLVING FOR HEAD 
                                                   Max.-Head-Change                         Max.-Flux-Residual
  Residual-Control   Outer-Iter.   Inner-Iter.     Column Row Layer    Maximum-Head-Change  Column Row Layer    Maximum-Flux-Residual          L2-NORM 
          0                 1           2             4    7     1      -0.1890446718E+00       4    7    1        -0.9887501511E+01      0.2366162068E+02
          0                 2           2             4    7     1       0.1838860910E-01       4    7    1         0.9887322364E+00      0.2365486783E+01
          0                 3           2             4    7     1      -0.1252198873E-02       4    7    1        -0.6921145596E-01      0.1655479238E+00
          0                 4           1             4    7     1       0.4982615199E-04       4    7    1         0.2830751689E-02      0.6769801695E-02

    ------------------------------------------------
       NWT REQUIRED            4 OUTER ITERATIONS 
       AND A TOTAL OF          7 INNER ITERATIONS.
    ------------------------------------------------

 OUTPUT CONTROL FOR STRESS PERIOD    5   TIME STEP    3
    PRINT BUDGET
    SAVE BUDGET
 UBDSV1 SAVING "         STORAGE" ON UNIT 102 AT TIME STEP  3, STRESS PERIOD   5
 UBDSV2 SAVING "   CONSTANT HEAD" ON UNIT 102 AT TIME STEP  3, STRESS PERIOD   5
 UBDSV1 SAVING "FLOW RIGHT FACE " ON UNIT 102 AT TIME STEP  3, STRESS PERIOD   5
 UBDSV1 SAVING "FLOW FRONT FACE " ON UNIT 102 AT TIME STEP  3, STRESS PERIOD   5

  HEAD DEP BOUNDS   PERIOD    5   STEP     3
 BOUNDARY      1   LAYER   1   ROW    13   COL     1   RATE   -0.295687    
 BOUNDARY      2   LAYER   1   ROW    14   COL     9   RATE    0.285765    



 STREAM LISTING     PERIOD      5   STEP        3

 LAYER ROW COL. STREAM  RCH.  FLOW INTO     FLOW TO   FLOW OUT OF   OVRLND.     DIRECT     STREAM       STREAM     STREAM     STREAM   STREAMBED  STREAMBED
                SEG.NO.  NO.  STRM. RCH.    AQUIFER    STRM. RCH.    RUNOFF     PRECIP       ET          HEAD       DEPTH      WIDTH   CONDCTNC.   GRADIENT

   1    1    1     1     1    2.8000E+01  2.5860E-01   2.7741E+01  0.000E+00  0.000E+00  0.000E+00  1.09427E+03  1.221E+00  1.361E+01  6.126E-02  1.407E+00
   1    2    2     1     2    2.7741E+01  4.0002E-01   2.7341E+01  0.000E+00  0.000E+00  0.000E+00  1.08928E+03  1.217E+00  1.355E+01  9.487E-02  1.406E+00
   1    3    3     1     3    2.7341E+01  3.4070E-01   2.7001E+01  0.000E+00  0.000E+00  0.000E+00  1.08363E+03  1.212E+00  1.348E+01  8.090E-02  1.404E+00
   1    3    4     1     4    2.7001E+01  3.1335E-01   2.6687E+01  0.000E+00  0.000E+00  0.000E+00  1.07861E+03  1.207E+00  1.342E+01  7.448E-02  1.402E+00
   1    4    5     2     1    2.4687E+01  3.2711E-01   2.4360E+01  0.000E+00  0.000E+00  0.000E+00  1.07313E+03  1.194E+00  1.200E+01  7.800E-02  1.398E+00
   1    5    6     2     2    2.4360E+01  2.5111E-01   2.4109E+01  0.000E+00  0.000E+00  0.000E+00  1.06769E+03  1.185E+00  1.200E+01  6.000E-02  1.395E+00
   1    6    6     2     3    2.4109E+01  2.5067E-01   2.3858E+01  0.000E+00  0.000E+00  0.000E+00  1.06297E+03  1.178E+00  1.200E+01  6.000E-02  1.393E+00
   1    7    6     2     4    2.3858E+01  2.5023E-01   2.3608E+01  0.000E+00  0.000E+00  0.000E+00  1.05825E+03  1.170E+00  1.200E+01  6.000E-02  1.390E+00
   1    8    6     2     5    2.3608E+01  2.4978E-01   2.3358E+01  0.000E+00  0.000E+00  0.000E+00  1.05352E+03  1.163E+00  1.200E+01  6.000E-02  1.388E+00
   1    3    5     3     1    2.0000E+00  2.8252E-01   1.7175E+00  0.000E+00  0.000E+00  0.000E+00  1.07555E+03  1.909E+00  9.636E+00  7.227E-02  1.955E+00
   1    3    6     3     2    1.7175E+00  2.4905E-01   1.4684E+00  0.000E+00  0.000E+00  0.000E+00  1.07264E+03  1.727E+00  8.909E+00  6.682E-02  1.864E+00
   1    3    7     3     3    1.4684E+00  1.9718E-01   1.2712E+00  0.000E+00  0.000E+00  0.000E+00  1.06987E+03  1.555E+00  8.218E+00  5.547E-02  1.777E+00
   1    4    8     3     4    1.2712E+00  2.2567E-01   1.0456E+00  0.000E+00  0.000E+00  0.000E+00  1.06682E+03  1.364E+00  7.455E+00  6.709E-02  1.682E+00
   1    5    8     3     5    1.0456E+00  1.5790E-01   8.8768E-01  0.000E+00  0.000E+00  0.000E+00  1.06362E+03  1.164E+00  6.655E+00  4.991E-02  1.582E+00
   1    6    8     3     6    8.8768E-01  5.5980E-02   8.3170E-01  0.000E+00  0.000E+00  0.000E+00  1.06158E+03  1.036E+00  6.145E+00  1.844E-02  1.518E+00
   1    5   10     4     1    1.0000E+01  9.0919E-02   9.9091E+00  0.000E+00  0.000E+00  0.000E+00  1.07836E+03  6.368E-01  1.000E+01  2.500E-02  1.212E+00
   1    5    9     4     2    9.9091E+00  1.8158E-01   9.7275E+00  0.000E+00  0.000E+00  0.000E+00  1.07154E+03  6.315E-01  1.000E+01  5.000E-02  1.211E+00
   1    6    8     4     3    9.7275E+00  1.2689E-01   9.6006E+00  0.000E+00  0.000E+00  0.000E+00  1.06381E+03  6.256E-01  1.000E+01  3.500E-02  1.209E+00
   1    6    8     5     1    1.0432E+01  2.2686E-01   1.0205E+01  0.000E+00  0.000E+00  0.000E+00  1.05868E+03  6.790E-01  1.542E+01  6.166E-02  1.226E+00
   1    7    7     5     2    1.0205E+01  2.7894E-01   9.9265E+00  0.000E+00  0.000E+00  0.000E+00  1.05417E+03  6.732E-01  1.519E+01  7.594E-02  1.224E+00
   1    8    7     5     3    9.9265E+00  1.9221E-01   9.7343E+00  0.000E+00  0.000E+00  0.000E+00  1.04992E+03  6.676E-01  1.497E+01  5.241E-02  1.223E+00
   1    8    6     5     4    9.7343E+00  1.3577E-01   9.5985E+00  0.000E+00  0.000E+00  0.000E+00  1.04691E+03  6.637E-01  1.482E+01  3.706E-02  1.221E+00
   1    9    6     6     1    9.5985E+00  2.2097E-01   9.3776E+00  0.000E+00  0.000E+00  0.000E+00  1.04341E+03  6.828E-01  1.200E+01  6.000E-02  1.228E+00
   1   10    7     6     2    9.3776E+00  2.2039E-01   9.1572E+00  0.000E+00  0.000E+00  0.000E+00  1.03885E+03  6.732E-01  1.200E+01  6.000E-02  1.224E+00
   1   11    7     6     3    9.1572E+00  2.1981E-01   8.9374E+00  0.000E+00  0.000E+00  0.000E+00  1.03430E+03  6.636E-01  1.200E+01  6.000E-02  1.221E+00
   1   12    7     6     4    8.9374E+00  2.1923E-01   8.7181E+00  0.000E+00  0.000E+00  0.000E+00  1.02974E+03  6.539E-01  1.200E+01  6.000E-02  1.218E+00
   1   13    7     6     5    8.7181E+00 -1.3753E-01   8.8557E+00  0.000E+00  0.000E+00  0.000E+00  1.02656E+03  6.520E-01  1.200E+01  2.400E-01 -1.910E-01
   1   14    9     7     1    1.5000E+02  1.3359E+00   1.4866E+02  0.000E+00  0.000E+00  0.000E+00  1.03987E+03  2.288E+00  5.529E+01  5.593E-01  7.962E-01
   1   13    8     7     2    1.4866E+02  1.8262E+00   1.4684E+02  0.000E+00  0.000E+00  0.000E+00  1.03478E+03  2.279E+00  5.526E+01  6.148E-01  9.902E-01
   1   13    7     7     3    1.4684E+02  1.4273E+00   1.4541E+02  0.000E+00  0.000E+00  0.000E+00  1.02969E+03  2.271E+00  5.522E+01  5.585E-01  8.519E-01
   1   13    6     8     1    1.5427E+02  7.7107E-01   1.5350E+02  0.000E+00  0.000E+00  0.000E+00  1.02472E+03  2.844E+00  4.124E+01  4.202E-01  6.116E-01
   1   13    5     8     2    1.5350E+02  4.3949E-02   1.5345E+02  0.000E+00  0.000E+00  0.000E+00  1.01847E+03  2.841E+00  4.120E+01  4.198E-01  3.490E-02
   1   13    4     8     3    1.5345E+02 -3.4678E+00   1.5692E+02  0.000E+00  0.000E+00  0.000E+00  1.01223E+03  2.853E+00  4.137E+01  4.216E+00 -2.742E-01
   1   13    3     8     4    1.5692E+02 -4.5522E+00   1.6147E+02  0.000E+00  0.000E+00  0.000E+00  1.00601E+03  2.880E+00  4.177E+01  4.256E+00 -3.565E-01
   1   13    2     8     5    1.6147E+02 -3.5399E+00   1.6501E+02  0.000E+00  0.000E+00  0.000E+00  9.99783E+02  2.908E+00  4.216E+01  4.296E+00 -2.746E-01
   1   13    1     8     6    1.6501E+02 -2.5397E+00   1.6755E+02  0.000E+00  0.000E+00  0.000E+00  9.94803E+02  2.928E+00  4.245E+01  2.596E+00 -3.261E-01
   1    8    6     9     1    2.3358E+01  0.0000E+00   2.3358E+01  0.000E+00  0.000E+00  0.000E+00  1.08252E+03  3.770E+00  4.000E+00  0.000E+00  2.257E+00
   1    8    5     9     2    2.3358E+01  0.0000E+00   2.3358E+01  0.000E+00  0.000E+00  0.000E+00  1.08202E+03  3.770E+00  4.000E+00  0.000E+00  2.257E+00



 UBDSV3 SAVING "           GW ET" ON UNIT  61 AT TIME STEP  3, STRESS PERIOD   5
 UBDSV3 SAVING "    UZF RECHARGE" ON UNIT  61 AT TIME STEP  3, STRESS PERIOD   5
 UBDSV3 SAVING " SURFACE LEAKAGE" ON UNIT  61 AT TIME STEP  3, STRESS PERIOD   5
 UBDSV3 SAVING "       HORT+DUNN" ON UNIT  61 AT TIME STEP  3, STRESS PERIOD   5
 UBDSV3 SAVING "  STORAGE CHANGE" ON UNIT  61 AT TIME STEP  3, STRESS PERIOD   5


UNSATURATED ZONE PACKAGE VOLUMETRIC BUDGET FOR  TIME STEP     3 STRESS PERIOD    5
  ------------------------------------------------------------------------------



     CUMULATIVE VOLUMES      L**3       RATES FOR THIS TIME STEP      L**3/T
     ------------------                 ------------------------

           IN:                                      IN:
           ---                                      ---
        INFILTRATION =    28884352.5000          INFILTRATION =          84.2064

          OUT:                                     OUT:
          ----                                     ----
              UZF ET =      332687.0055                UZF ET =           1.1081
        UZF RECHARGE =     4358596.6599          UZF RECHARGE =           0.3072

            IN - OUT =    24193068.8346              IN - OUT =          82.7911

          STORAGE:                                 STORAGE:
          --------                                 --------
      STORAGE CHANGE =    24193068.6121        STORAGE CHANGE =          82.7911

 PERCENT DISCREPANCY IS DIFFERENCE BETWEEN IN-OUT MINUS CHANGE IN STORAGE
 DIVIDED BY THE AVERAGE OF IN AND OUT TIMES 100

 PERCENT DISCREPANCY =           0.00     PERCENT DISCREPANCY =           0.00






 

            AWU WELLS     PERIOD    5   STEP   3
 AWU WELL      1   LAYER   1   ROW     6   COL     4   RATE    -10.0000    
 AWU WELL      2   LAYER   1   ROW     6   COL     5   RATE    -10.0000    
 AWU WELL      3   LAYER   1   ROW     7   COL     4   RATE    -10.0000    
 AWU WELL      4   LAYER   1   ROW     7   COL     5   RATE    -10.0000    
 AWU WELL      5   LAYER   1   ROW     8   COL     4   RATE    -10.0000    
 AWU WELL      6   LAYER   1   ROW     8   COL     5   RATE    -10.0000    
 
 

   DIVERSION SEGMENTS     PERIOD    5   STEP   3
 SEGMENT      9   RATE     23.3584    
 
 

        SW IRRIGATION     PERIOD    5   STEP   3
 SEGMENT      9   ROW     6   COL     4   RATE     3.89315    
 SEGMENT      9   ROW     6   COL     5   RATE     3.89315    
 SEGMENT      9   ROW     7   COL     4   RATE     3.89315    
 SEGMENT      9   ROW     7   COL     5   RATE     3.89315    
 SEGMENT      9   ROW     8   COL     4   RATE     3.89315    
 SEGMENT      9   ROW     8   COL     5   RATE     3.89315    
 
 

        GW IRRIGATION     PERIOD    5   STEP   3
 AWU WELL      1   ROW     6   COL     4   RATE     10.0000    
 AWU WELL      2   ROW     6   COL     5   RATE     10.0000    
 AWU WELL      3   ROW     7   COL     4   RATE     10.0000    
 AWU WELL      4   ROW     7   COL     5   RATE     10.0000    
 AWU WELL      5   ROW     8   COL     4   RATE     10.0000    
 AWU WELL      6   ROW     8   COL     5   RATE     10.0000    
 
1
  VOLUMETRIC BUDGET FOR ENTIRE MODEL AT END OF TIME STEP    3, STRESS PERIOD   5
  ------------------------------------------------------------------------------

     CUMULATIVE VOLUMES      L**3       RATES FOR THIS TIME STEP      L**3/T
     ------------------                 ------------------------

           IN:                                      IN:
           ---                                      ---
               AWU WELLS =    15768000.0000                 AWU WELLS =          60.0000
      DIVERSION SEGMENTS =     6138591.5000        DIVERSION SEGMENTS =          23.3584
           GW IRRIGATION =           0.0000             GW IRRIGATION =           0.0000
           SW IRRIGATION =           0.0000             SW IRRIGATION =           0.0000
        SYSTEM LOSSES GW =           0.0000          SYSTEM LOSSES GW =           0.0000
        SYSTEM LOSSES SW =           0.0000          SYSTEM LOSSES SW =           0.0000

                TOTAL IN =    21906592.0000                  TOTAL IN =          83.3584

          OUT:                                     OUT:
          ----                                     ----
               AWU WELLS =           0.0000                 AWU WELLS =           0.0000
      DIVERSION SEGMENTS =           0.0000        DIVERSION SEGMENTS =           0.0000
           GW IRRIGATION =    15768000.0000             GW IRRIGATION =          60.0000
           SW IRRIGATION =     6138714.0000             SW IRRIGATION =          23.3589
        SYSTEM LOSSES GW =           0.0000          SYSTEM LOSSES GW =           0.0000
        SYSTEM LOSSES SW =           0.0000          SYSTEM LOSSES SW =           0.0000

               TOTAL OUT =    21906714.0000                 TOTAL OUT =          83.3589

                IN - OUT =        -122.0000                  IN - OUT =      -4.7302E-04

     PERCENT DISCREPANCY =          -0.00         PERCENT DISCREPANCY =          -0.00



1
  VOLUMETRIC BUDGET FOR ENTIRE MODEL AT END OF TIME STEP    3, STRESS PERIOD   5
  ------------------------------------------------------------------------------

     CUMULATIVE VOLUMES      L**3       RATES FOR THIS TIME STEP      L**3/T
     ------------------                 ------------------------

           IN:                                      IN:
           ---                                      ---
             STORAGE     =    21272632.0000               STORAGE     =          64.6708
       CONSTANT HEAD     =           0.0000         CONSTANT HEAD     =           0.0000
     HEAD DEP BOUNDS     =     2352715.0000       HEAD DEP BOUNDS     =           0.2858
      STREAM LEAKAGE     =   102661344.0000        STREAM LEAKAGE     =          11.3279
        UZF RECHARGE     =     4358596.5000          UZF RECHARGE     =           0.3072
               GW ET     =           0.0000                 GW ET     =           0.0000
     SURFACE LEAKAGE     =           0.0000       SURFACE LEAKAGE     =           0.0000
           AWU WELLS     =           0.0000             AWU WELLS     =           0.0000

                TOTAL IN =   130645288.0000                  TOTAL IN =          76.5917

          OUT:                                     OUT:
          ----                                     ----
             STORAGE     =    28610382.0000               STORAGE     =           1.5500
       CONSTANT HEAD     =           0.0000         CONSTANT HEAD     =           0.0000
     HEAD DEP BOUNDS     =     2399931.0000       HEAD DEP BOUNDS     =           0.2957
      STREAM LEAKAGE     =    83574896.0000        STREAM LEAKAGE     =          14.2372
        UZF RECHARGE     =           0.0000          UZF RECHARGE     =           0.0000
               GW ET     =      299908.0312                 GW ET     =           0.5090
     SURFACE LEAKAGE     =           0.0000       SURFACE LEAKAGE     =           0.0000
           AWU WELLS     =    15768000.0000             AWU WELLS     =          60.0000

               TOTAL OUT =   130653120.0000                 TOTAL OUT =          76.5918

                IN - OUT =       -7832.0000                  IN - OUT =      -1.6022E-04

     PERCENT DISCREPANCY =          -0.01         PERCENT DISCREPANCY =          -0.00






         TIME SUMMARY AT END OF TIME STEP    3 IN STRESS PERIOD    5
                    SECONDS     MINUTES      HOURS       DAYS        YEARS
                    -----------------------------------------------------------
   TIME STEP LENGTH  87600.      1460.0      24.333      1.0139     2.77588E-03
 STRESS PERIOD TIME 2.62800E+05  4380.0      73.000      3.0417     8.32763E-03
         TOTAL TIME 8.23320E+06 1.37220E+05  2287.0      95.292     0.26089    
1
 
 SOLVING FOR HEAD 
                                                   Max.-Head-Change                         Max.-Flux-Residual
  Residual-Control   Outer-Iter.   Inner-Iter.     Column Row Layer    Maximum-Head-Change  Column Row Layer    Maximum-Flux-Residual          L2-NORM 
          0                 1           2             4    7     1      -0.1878716766E+00       4    7    1        -0.9830167257E+01      0.2324123618E+02
          0                 2           2             4    7     1       0.1827448096E-01       4    7    1         0.9829968957E+00      0.2323514143E+01
          0                 3           2             4    7     1      -0.1244427436E-02       4    7    1        -0.6881000008E-01      0.1626145911E+00
          0                 4           1             4    7     1       0.4951691787E-04       4    7    1         0.2814332041E-02      0.6650099202E-02

    ------------------------------------------------
       NWT REQUIRED            4 OUTER ITERATIONS 
       AND A TOTAL OF          7 INNER ITERATIONS.
    ------------------------------------------------

 OUTPUT CONTROL FOR STRESS PERIOD    5   TIME STEP    4
    PRINT BUDGET
    SAVE BUDGET
 UBDSV1 SAVING "         STORAGE" ON UNIT 102 AT TIME STEP  4, STRESS PERIOD   5
 UBDSV2 SAVING "   CONSTANT HEAD" ON UNIT 102 AT TIME STEP  4, STRESS PERIOD   5
 UBDSV1 SAVING "FLOW RIGHT FACE " ON UNIT 102 AT TIME STEP  4, STRESS PERIOD   5
 UBDSV1 SAVING "FLOW FRONT FACE " ON UNIT 102 AT TIME STEP  4, STRESS PERIOD   5

  HEAD DEP BOUNDS   PERIOD    5   STEP     4
 BOUNDARY      1   LAYER   1   ROW    13   COL     1   RATE   -0.295251    
 BOUNDARY      2   LAYER   1   ROW    14   COL     9   RATE    0.285765    



 STREAM LISTING     PERIOD      5   STEP        4

 LAYER ROW COL. STREAM  RCH.  FLOW INTO     FLOW TO   FLOW OUT OF   OVRLND.     DIRECT     STREAM       STREAM     STREAM     STREAM   STREAMBED  STREAMBED
                SEG.NO.  NO.  STRM. RCH.    AQUIFER    STRM. RCH.    RUNOFF     PRECIP       ET          HEAD       DEPTH      WIDTH   CONDCTNC.   GRADIENT

   1    1    1     1     1    2.8000E+01  2.5860E-01   2.7741E+01  0.000E+00  0.000E+00  0.000E+00  1.09427E+03  1.221E+00  1.361E+01  6.126E-02  1.407E+00
   1    2    2     1     2    2.7741E+01  4.0002E-01   2.7341E+01  0.000E+00  0.000E+00  0.000E+00  1.08928E+03  1.217E+00  1.355E+01  9.487E-02  1.406E+00
   1    3    3     1     3    2.7341E+01  3.4070E-01   2.7001E+01  0.000E+00  0.000E+00  0.000E+00  1.08363E+03  1.212E+00  1.348E+01  8.090E-02  1.404E+00
   1    3    4     1     4    2.7001E+01  3.1335E-01   2.6687E+01  0.000E+00  0.000E+00  0.000E+00  1.07861E+03  1.207E+00  1.342E+01  7.448E-02  1.402E+00
   1    4    5     2     1    2.4687E+01  3.2711E-01   2.4360E+01  0.000E+00  0.000E+00  0.000E+00  1.07313E+03  1.194E+00  1.200E+01  7.800E-02  1.398E+00
   1    5    6     2     2    2.4360E+01  2.5111E-01   2.4109E+01  0.000E+00  0.000E+00  0.000E+00  1.06769E+03  1.185E+00  1.200E+01  6.000E-02  1.395E+00
   1    6    6     2     3    2.4109E+01  2.5067E-01   2.3858E+01  0.000E+00  0.000E+00  0.000E+00  1.06297E+03  1.178E+00  1.200E+01  6.000E-02  1.393E+00
   1    7    6     2     4    2.3858E+01  2.5023E-01   2.3608E+01  0.000E+00  0.000E+00  0.000E+00  1.05825E+03  1.170E+00  1.200E+01  6.000E-02  1.390E+00
   1    8    6     2     5    2.3608E+01  2.4978E-01   2.3358E+01  0.000E+00  0.000E+00  0.000E+00  1.05352E+03  1.163E+00  1.200E+01  6.000E-02  1.388E+00
   1    3    5     3     1    2.0000E+00  2.8252E-01   1.7175E+00  0.000E+00  0.000E+00  0.000E+00  1.07555E+03  1.909E+00  9.636E+00  7.227E-02  1.955E+00
   1    3    6     3     2    1.7175E+00  2.4905E-01   1.4684E+00  0.000E+00  0.000E+00  0.000E+00  1.07264E+03  1.727E+00  8.909E+00  6.682E-02  1.864E+00
   1    3    7     3     3    1.4684E+00  1.9718E-01   1.2712E+00  0.000E+00  0.000E+00  0.000E+00  1.06987E+03  1.555E+00  8.218E+00  5.547E-02  1.777E+00
   1    4    8     3     4    1.2712E+00  2.2567E-01   1.0456E+00  0.000E+00  0.000E+00  0.000E+00  1.06682E+03  1.364E+00  7.455E+00  6.709E-02  1.682E+00
   1    5    8     3     5    1.0456E+00  1.5790E-01   8.8768E-01  0.000E+00  0.000E+00  0.000E+00  1.06362E+03  1.164E+00  6.655E+00  4.991E-02  1.582E+00
   1    6    8     3     6    8.8768E-01  5.5980E-02   8.3170E-01  0.000E+00  0.000E+00  0.000E+00  1.06158E+03  1.036E+00  6.145E+00  1.844E-02  1.518E+00
   1    5   10     4     1    1.0000E+01  9.0919E-02   9.9091E+00  0.000E+00  0.000E+00  0.000E+00  1.07836E+03  6.368E-01  1.000E+01  2.500E-02  1.212E+00
   1    5    9     4     2    9.9091E+00  1.8158E-01   9.7275E+00  0.000E+00  0.000E+00  0.000E+00  1.07154E+03  6.315E-01  1.000E+01  5.000E-02  1.211E+00
   1    6    8     4     3    9.7275E+00  1.2689E-01   9.6006E+00  0.000E+00  0.000E+00  0.000E+00  1.06381E+03  6.256E-01  1.000E+01  3.500E-02  1.209E+00
   1    6    8     5     1    1.0432E+01  2.2686E-01   1.0205E+01  0.000E+00  0.000E+00  0.000E+00  1.05868E+03  6.790E-01  1.542E+01  6.166E-02  1.226E+00
   1    7    7     5     2    1.0205E+01  2.7894E-01   9.9265E+00  0.000E+00  0.000E+00  0.000E+00  1.05417E+03  6.732E-01  1.519E+01  7.594E-02  1.224E+00
   1    8    7     5     3    9.9265E+00  1.9221E-01   9.7343E+00  0.000E+00  0.000E+00  0.000E+00  1.04992E+03  6.676E-01  1.497E+01  5.241E-02  1.223E+00
   1    8    6     5     4    9.7343E+00  1.3577E-01   9.5985E+00  0.000E+00  0.000E+00  0.000E+00  1.04691E+03  6.637E-01  1.482E+01  3.706E-02  1.221E+00
   1    9    6     6     1    9.5985E+00  2.2097E-01   9.3776E+00  0.000E+00  0.000E+00  0.000E+00  1.04341E+03  6.828E-01  1.200E+01  6.000E-02  1.228E+00
   1   10    7     6     2    9.3776E+00  2.2039E-01   9.1572E+00  0.000E+00  0.000E+00  0.000E+00  1.03885E+03  6.732E-01  1.200E+01  6.000E-02  1.224E+00
   1   11    7     6     3    9.1572E+00  2.1981E-01   8.9374E+00  0.000E+00  0.000E+00  0.000E+00  1.03430E+03  6.636E-01  1.200E+01  6.000E-02  1.221E+00
   1   12    7     6     4    8.9374E+00  2.1923E-01   8.7181E+00  0.000E+00  0.000E+00  0.000E+00  1.02974E+03  6.539E-01  1.200E+01  6.000E-02  1.218E+00
   1   13    7     6     5    8.7181E+00 -1.3707E-01   8.8552E+00  0.000E+00  0.000E+00  0.000E+00  1.02656E+03  6.520E-01  1.200E+01  2.400E-01 -1.904E-01
   1   14    9     7     1    1.5000E+02  1.3359E+00   1.4866E+02  0.000E+00  0.000E+00  0.000E+00  1.03987E+03  2.288E+00  5.529E+01  5.593E-01  7.962E-01
   1   13    8     7     2    1.4866E+02  1.8260E+00   1.4684E+02  0.000E+00  0.000E+00  0.000E+00  1.03478E+03  2.279E+00  5.526E+01  6.148E-01  9.901E-01
   1   13    7     7     3    1.4684E+02  1.4284E+00   1.4541E+02  0.000E+00  0.000E+00  0.000E+00  1.02969E+03  2.271E+00  5.522E+01  5.585E-01  8.526E-01
   1   13    6     8     1    1.5426E+02  7.7258E-01   1.5349E+02  0.000E+00  0.000E+00  0.000E+00  1.02472E+03  2.844E+00  4.124E+01  4.202E-01  6.128E-01
   1   13    5     8     2    1.5349E+02  4.5532E-02   1.5345E+02  0.000E+00  0.000E+00  0.000E+00  1.01847E+03  2.841E+00  4.120E+01  4.198E-01  3.615E-02
   1   13    4     8     3    1.5345E+02 -3.3986E+00   1.5685E+02  0.000E+00  0.000E+00  0.000E+00  1.01223E+03  2.853E+00  4.136E+01  4.215E+00 -2.688E-01
   1   13    3     8     4    1.5685E+02 -4.4868E+00   1.6133E+02  0.000E+00  0.000E+00  0.000E+00  1.00600E+03  2.880E+00  4.176E+01  4.255E+00 -3.515E-01
   1   13    2     8     5    1.6133E+02 -3.4711E+00   1.6480E+02  0.000E+00  0.000E+00  0.000E+00  9.99781E+02  2.906E+00  4.214E+01  4.295E+00 -2.694E-01
   1   13    1     8     6    1.6480E+02 -2.5124E+00   1.6732E+02  0.000E+00  0.000E+00  0.000E+00  9.94801E+02  2.926E+00  4.243E+01  2.594E+00 -3.228E-01
   1    8    6     9     1    2.3358E+01  0.0000E+00   2.3358E+01  0.000E+00  0.000E+00  0.000E+00  1.08252E+03  3.770E+00  4.000E+00  0.000E+00  2.257E+00
   1    8    5     9     2    2.3358E+01  0.0000E+00   2.3358E+01  0.000E+00  0.000E+00  0.000E+00  1.08202E+03  3.770E+00  4.000E+00  0.000E+00  2.257E+00



 UBDSV3 SAVING "           GW ET" ON UNIT  61 AT TIME STEP  4, STRESS PERIOD   5
 UBDSV3 SAVING "    UZF RECHARGE" ON UNIT  61 AT TIME STEP  4, STRESS PERIOD   5
 UBDSV3 SAVING " SURFACE LEAKAGE" ON UNIT  61 AT TIME STEP  4, STRESS PERIOD   5
 UBDSV3 SAVING "       HORT+DUNN" ON UNIT  61 AT TIME STEP  4, STRESS PERIOD   5
 UBDSV3 SAVING "  STORAGE CHANGE" ON UNIT  61 AT TIME STEP  4, STRESS PERIOD   5


UNSATURATED ZONE PACKAGE VOLUMETRIC BUDGET FOR  TIME STEP     4 STRESS PERIOD    5
  ------------------------------------------------------------------------------



     CUMULATIVE VOLUMES      L**3       RATES FOR THIS TIME STEP      L**3/T
     ------------------                 ------------------------

           IN:                                      IN:
           ---                                      ---
        INFILTRATION =    36260832.0000          INFILTRATION =          84.2064

          OUT:                                     OUT:
          ----                                     ----
              UZF ET =      438435.0806                UZF ET =           1.2072
        UZF RECHARGE =     4384358.7862          UZF RECHARGE =           0.2941

            IN - OUT =    31438038.1332              IN - OUT =          82.7051

          STORAGE:                                 STORAGE:
          --------                                 --------
      STORAGE CHANGE =    31438037.8408        STORAGE CHANGE =          82.7051

 PERCENT DISCREPANCY IS DIFFERENCE BETWEEN IN-OUT MINUS CHANGE IN STORAGE
 DIVIDED BY THE AVERAGE OF IN AND OUT TIMES 100

 PERCENT DISCREPANCY =           0.00     PERCENT DISCREPANCY =           0.00






 

            AWU WELLS     PERIOD    5   STEP   4
 AWU WELL      1   LAYER   1   ROW     6   COL     4   RATE    -10.0000    
 AWU WELL      2   LAYER   1   ROW     6   COL     5   RATE    -10.0000    
 AWU WELL      3   LAYER   1   ROW     7   COL     4   RATE    -10.0000    
 AWU WELL      4   LAYER   1   ROW     7   COL     5   RATE    -10.0000    
 AWU WELL      5   LAYER   1   ROW     8   COL     4   RATE    -10.0000    
 AWU WELL      6   LAYER   1   ROW     8   COL     5   RATE    -10.0000    
 
 

   DIVERSION SEGMENTS     PERIOD    5   STEP   4
 SEGMENT      9   RATE     23.3584    
 
 

        SW IRRIGATION     PERIOD    5   STEP   4
 SEGMENT      9   ROW     6   COL     4   RATE     3.89315    
 SEGMENT      9   ROW     6   COL     5   RATE     3.89315    
 SEGMENT      9   ROW     7   COL     4   RATE     3.89315    
 SEGMENT      9   ROW     7   COL     5   RATE     3.89315    
 SEGMENT      9   ROW     8   COL     4   RATE     3.89315    
 SEGMENT      9   ROW     8   COL     5   RATE     3.89315    
 
 

        GW IRRIGATION     PERIOD    5   STEP   4
 AWU WELL      1   ROW     6   COL     4   RATE     10.0000    
 AWU WELL      2   ROW     6   COL     5   RATE     10.0000    
 AWU WELL      3   ROW     7   COL     4   RATE     10.0000    
 AWU WELL      4   ROW     7   COL     5   RATE     10.0000    
 AWU WELL      5   ROW     8   COL     4   RATE     10.0000    
 AWU WELL      6   ROW     8   COL     5   RATE     10.0000    
 
1
  VOLUMETRIC BUDGET FOR ENTIRE MODEL AT END OF TIME STEP    4, STRESS PERIOD   5
  ------------------------------------------------------------------------------

     CUMULATIVE VOLUMES      L**3       RATES FOR THIS TIME STEP      L**3/T
     ------------------                 ------------------------

           IN:                                      IN:
           ---                                      ---
               AWU WELLS =    21024000.0000                 AWU WELLS =          60.0000
      DIVERSION SEGMENTS =     8184788.5000        DIVERSION SEGMENTS =          23.3584
           GW IRRIGATION =           0.0000             GW IRRIGATION =           0.0000
           SW IRRIGATION =           0.0000             SW IRRIGATION =           0.0000
        SYSTEM LOSSES GW =           0.0000          SYSTEM LOSSES GW =           0.0000
        SYSTEM LOSSES SW =           0.0000          SYSTEM LOSSES SW =           0.0000

                TOTAL IN =    29208788.0000                  TOTAL IN =          83.3584

          OUT:                                     OUT:
          ----                                     ----
               AWU WELLS =           0.0000                 AWU WELLS =           0.0000
      DIVERSION SEGMENTS =           0.0000        DIVERSION SEGMENTS =           0.0000
           GW IRRIGATION =    21024000.0000             GW IRRIGATION =          60.0000
           SW IRRIGATION =     8184952.0000             SW IRRIGATION =          23.3589
        SYSTEM LOSSES GW =           0.0000          SYSTEM LOSSES GW =           0.0000
        SYSTEM LOSSES SW =           0.0000          SYSTEM LOSSES SW =           0.0000

               TOTAL OUT =    29208952.0000                 TOTAL OUT =          83.3589

                IN - OUT =        -164.0000                  IN - OUT =      -4.7302E-04

     PERCENT DISCREPANCY =          -0.00         PERCENT DISCREPANCY =          -0.00



1
  VOLUMETRIC BUDGET FOR ENTIRE MODEL AT END OF TIME STEP    4, STRESS PERIOD   5
  ------------------------------------------------------------------------------

     CUMULATIVE VOLUMES      L**3       RATES FOR THIS TIME STEP      L**3/T
     ------------------                 ------------------------

           IN:                                      IN:
           ---                                      ---
             STORAGE     =    26908324.0000               STORAGE     =          64.3344
       CONSTANT HEAD     =           0.0000         CONSTANT HEAD     =           0.0000
     HEAD DEP BOUNDS     =     2377748.0000       HEAD DEP BOUNDS     =           0.2858
      STREAM LEAKAGE     =   103654016.0000        STREAM LEAKAGE     =          11.3319
        UZF RECHARGE     =     4384358.5000          UZF RECHARGE     =           0.2941
               GW ET     =           0.0000                 GW ET     =           0.0000
     SURFACE LEAKAGE     =           0.0000       SURFACE LEAKAGE     =           0.0000
           AWU WELLS     =           0.0000             AWU WELLS     =           0.0000

                TOTAL IN =   137324448.0000                  TOTAL IN =          76.2461

          OUT:                                     OUT:
          ----                                     ----
             STORAGE     =    28736342.0000               STORAGE     =           1.4379
       CONSTANT HEAD     =           0.0000         CONSTANT HEAD     =           0.0000
     HEAD DEP BOUNDS     =     2425795.0000       HEAD DEP BOUNDS     =           0.2953
      STREAM LEAKAGE     =    84801832.0000        STREAM LEAKAGE     =          14.0061
        UZF RECHARGE     =           0.0000          UZF RECHARGE     =           0.0000
               GW ET     =      344324.4688                 GW ET     =           0.5070
     SURFACE LEAKAGE     =           0.0000       SURFACE LEAKAGE     =           0.0000
           AWU WELLS     =    21024000.0000             AWU WELLS     =          60.0000

               TOTAL OUT =   137332288.0000                 TOTAL OUT =          76.2463

                IN - OUT =       -7840.0000                  IN - OUT =      -1.6022E-04

     PERCENT DISCREPANCY =          -0.01         PERCENT DISCREPANCY =          -0.00






         TIME SUMMARY AT END OF TIME STEP    4 IN STRESS PERIOD    5
                    SECONDS     MINUTES      HOURS       DAYS        YEARS
                    -----------------------------------------------------------
   TIME STEP LENGTH  87600.      1460.0      24.333      1.0139     2.77588E-03
 STRESS PERIOD TIME 3.50400E+05  5840.0      97.333      4.0556     1.11035E-02
         TOTAL TIME 8.32080E+06 1.38680E+05  2311.3      96.306     0.26367    
1
 
 SOLVING FOR HEAD 
                                                   Max.-Head-Change                         Max.-Flux-Residual
  Residual-Control   Outer-Iter.   Inner-Iter.     Column Row Layer    Maximum-Head-Change  Column Row Layer    Maximum-Flux-Residual          L2-NORM 
          0                 1           2             4    7     1      -0.1866353197E+00       4    7    1        -0.9769191393E+01      0.2284220359E+02
          0                 2           2             4    7     1       0.1815419265E-01       4    7    1         0.9768976104E+00      0.2283668205E+01
          0                 3           2             4    7     1      -0.1236236491E-02       4    7    1        -0.6838306598E-01      0.1598295284E+00
          0                 4           1             4    7     1       0.4919099141E-04       4    7    1         0.2796870351E-02      0.6536420040E-02

    ------------------------------------------------
       NWT REQUIRED            4 OUTER ITERATIONS 
       AND A TOTAL OF          7 INNER ITERATIONS.
    ------------------------------------------------

 NO OUTPUT CONTROL FOR STRESS PERIOD    5   TIME STEP    5
 
 SOLVING FOR HEAD 
                                                   Max.-Head-Change                         Max.-Flux-Residual
  Residual-Control   Outer-Iter.   Inner-Iter.     Column Row Layer    Maximum-Head-Change  Column Row Layer    Maximum-Flux-Residual          L2-NORM 
          0                 1           2             4    7     1      -0.1853409202E+00       4    7    1        -0.9704868482E+01      0.2246282779E+02
          0                 2           2             4    7     1       0.1802826133E-01       4    7    1         0.9704638217E+00      0.2245780862E+01
          0                 3           2             4    7     1      -0.1227661250E-02       4    7    1        -0.6793271476E-01      0.1571809687E+00
          0                 4           1             4    7     1       0.4884977323E-04       4    7    1         0.2778450905E-02      0.6428275070E-02

    ------------------------------------------------
       NWT REQUIRED            4 OUTER ITERATIONS 
       AND A TOTAL OF          7 INNER ITERATIONS.
    ------------------------------------------------

 OUTPUT CONTROL FOR STRESS PERIOD    5   TIME STEP    6
    PRINT BUDGET
    SAVE BUDGET
 UBDSV1 SAVING "         STORAGE" ON UNIT 102 AT TIME STEP  6, STRESS PERIOD   5
 UBDSV2 SAVING "   CONSTANT HEAD" ON UNIT 102 AT TIME STEP  6, STRESS PERIOD   5
 UBDSV1 SAVING "FLOW RIGHT FACE " ON UNIT 102 AT TIME STEP  6, STRESS PERIOD   5
 UBDSV1 SAVING "FLOW FRONT FACE " ON UNIT 102 AT TIME STEP  6, STRESS PERIOD   5

  HEAD DEP BOUNDS   PERIOD    5   STEP     6
 BOUNDARY      1   LAYER   1   ROW    13   COL     1   RATE   -0.294429    
 BOUNDARY      2   LAYER   1   ROW    14   COL     9   RATE    0.285764    



 STREAM LISTING     PERIOD      5   STEP        6

 LAYER ROW COL. STREAM  RCH.  FLOW INTO     FLOW TO   FLOW OUT OF   OVRLND.     DIRECT     STREAM       STREAM     STREAM     STREAM   STREAMBED  STREAMBED
                SEG.NO.  NO.  STRM. RCH.    AQUIFER    STRM. RCH.    RUNOFF     PRECIP       ET          HEAD       DEPTH      WIDTH   CONDCTNC.   GRADIENT

   1    1    1     1     1    2.8000E+01  2.5860E-01   2.7741E+01  0.000E+00  0.000E+00  0.000E+00  1.09427E+03  1.221E+00  1.361E+01  6.126E-02  1.407E+00
   1    2    2     1     2    2.7741E+01  4.0002E-01   2.7341E+01  0.000E+00  0.000E+00  0.000E+00  1.08928E+03  1.217E+00  1.355E+01  9.487E-02  1.406E+00
   1    3    3     1     3    2.7341E+01  3.4070E-01   2.7001E+01  0.000E+00  0.000E+00  0.000E+00  1.08363E+03  1.212E+00  1.348E+01  8.090E-02  1.404E+00
   1    3    4     1     4    2.7001E+01  3.1335E-01   2.6687E+01  0.000E+00  0.000E+00  0.000E+00  1.07861E+03  1.207E+00  1.342E+01  7.448E-02  1.402E+00
   1    4    5     2     1    2.4687E+01  3.2711E-01   2.4360E+01  0.000E+00  0.000E+00  0.000E+00  1.07313E+03  1.194E+00  1.200E+01  7.800E-02  1.398E+00
   1    5    6     2     2    2.4360E+01  2.5111E-01   2.4109E+01  0.000E+00  0.000E+00  0.000E+00  1.06769E+03  1.185E+00  1.200E+01  6.000E-02  1.395E+00
   1    6    6     2     3    2.4109E+01  2.5067E-01   2.3858E+01  0.000E+00  0.000E+00  0.000E+00  1.06297E+03  1.178E+00  1.200E+01  6.000E-02  1.393E+00
   1    7    6     2     4    2.3858E+01  2.5023E-01   2.3608E+01  0.000E+00  0.000E+00  0.000E+00  1.05825E+03  1.170E+00  1.200E+01  6.000E-02  1.390E+00
   1    8    6     2     5    2.3608E+01  2.4978E-01   2.3358E+01  0.000E+00  0.000E+00  0.000E+00  1.05352E+03  1.163E+00  1.200E+01  6.000E-02  1.388E+00
   1    3    5     3     1    2.0000E+00  2.8252E-01   1.7175E+00  0.000E+00  0.000E+00  0.000E+00  1.07555E+03  1.909E+00  9.636E+00  7.227E-02  1.955E+00
   1    3    6     3     2    1.7175E+00  2.4905E-01   1.4684E+00  0.000E+00  0.000E+00  0.000E+00  1.07264E+03  1.727E+00  8.909E+00  6.682E-02  1.864E+00
   1    3    7     3     3    1.4684E+00  1.9718E-01   1.2712E+00  0.000E+00  0.000E+00  0.000E+00  1.06987E+03  1.555E+00  8.218E+00  5.547E-02  1.777E+00
   1    4    8     3     4    1.2712E+00  2.2567E-01   1.0456E+00  0.000E+00  0.000E+00  0.000E+00  1.06682E+03  1.364E+00  7.455E+00  6.709E-02  1.682E+00
   1    5    8     3     5    1.0456E+00  1.5790E-01   8.8768E-01  0.000E+00  0.000E+00  0.000E+00  1.06362E+03  1.164E+00  6.655E+00  4.991E-02  1.582E+00
   1    6    8     3     6    8.8768E-01  5.5980E-02   8.3170E-01  0.000E+00  0.000E+00  0.000E+00  1.06158E+03  1.036E+00  6.145E+00  1.844E-02  1.518E+00
   1    5   10     4     1    1.0000E+01  9.0919E-02   9.9091E+00  0.000E+00  0.000E+00  0.000E+00  1.07836E+03  6.368E-01  1.000E+01  2.500E-02  1.212E+00
   1    5    9     4     2    9.9091E+00  1.8158E-01   9.7275E+00  0.000E+00  0.000E+00  0.000E+00  1.07154E+03  6.315E-01  1.000E+01  5.000E-02  1.211E+00
   1    6    8     4     3    9.7275E+00  1.2689E-01   9.6006E+00  0.000E+00  0.000E+00  0.000E+00  1.06381E+03  6.256E-01  1.000E+01  3.500E-02  1.209E+00
   1    6    8     5     1    1.0432E+01  2.2686E-01   1.0205E+01  0.000E+00  0.000E+00  0.000E+00  1.05868E+03  6.790E-01  1.542E+01  6.166E-02  1.226E+00
   1    7    7     5     2    1.0205E+01  2.7894E-01   9.9265E+00  0.000E+00  0.000E+00  0.000E+00  1.05417E+03  6.732E-01  1.519E+01  7.594E-02  1.224E+00
   1    8    7     5     3    9.9265E+00  1.9221E-01   9.7343E+00  0.000E+00  0.000E+00  0.000E+00  1.04992E+03  6.676E-01  1.497E+01  5.241E-02  1.223E+00
   1    8    6     5     4    9.7343E+00  1.3577E-01   9.5985E+00  0.000E+00  0.000E+00  0.000E+00  1.04691E+03  6.637E-01  1.482E+01  3.706E-02  1.221E+00
   1    9    6     6     1    9.5985E+00  2.2097E-01   9.3776E+00  0.000E+00  0.000E+00  0.000E+00  1.04341E+03  6.828E-01  1.200E+01  6.000E-02  1.228E+00
   1   10    7     6     2    9.3776E+00  2.2039E-01   9.1572E+00  0.000E+00  0.000E+00  0.000E+00  1.03885E+03  6.732E-01  1.200E+01  6.000E-02  1.224E+00
   1   11    7     6     3    9.1572E+00  2.1981E-01   8.9374E+00  0.000E+00  0.000E+00  0.000E+00  1.03430E+03  6.636E-01  1.200E+01  6.000E-02  1.221E+00
   1   12    7     6     4    8.9374E+00  2.1923E-01   8.7181E+00  0.000E+00  0.000E+00  0.000E+00  1.02974E+03  6.539E-01  1.200E+01  6.000E-02  1.218E+00
   1   13    7     6     5    8.7181E+00 -1.3618E-01   8.8543E+00  0.000E+00  0.000E+00  0.000E+00  1.02656E+03  6.520E-01  1.200E+01  2.400E-01 -1.891E-01
   1   14    9     7     1    1.5000E+02  1.3359E+00   1.4866E+02  0.000E+00  0.000E+00  0.000E+00  1.03987E+03  2.288E+00  5.529E+01  5.593E-01  7.962E-01
   1   13    8     7     2    1.4866E+02  1.8258E+00   1.4684E+02  0.000E+00  0.000E+00  0.000E+00  1.03478E+03  2.279E+00  5.526E+01  6.148E-01  9.899E-01
   1   13    7     7     3    1.4684E+02  1.4305E+00   1.4541E+02  0.000E+00  0.000E+00  0.000E+00  1.02969E+03  2.271E+00  5.522E+01  5.585E-01  8.538E-01
   1   13    6     8     1    1.5426E+02  7.7545E-01   1.5349E+02  0.000E+00  0.000E+00  0.000E+00  1.02472E+03  2.844E+00  4.124E+01  4.202E-01  6.151E-01
   1   13    5     8     2    1.5349E+02  4.8717E-02   1.5344E+02  0.000E+00  0.000E+00  0.000E+00  1.01847E+03  2.841E+00  4.120E+01  4.198E-01  3.868E-02
   1   13    4     8     3    1.5344E+02 -3.2783E+00   1.5672E+02  0.000E+00  0.000E+00  0.000E+00  1.01223E+03  2.852E+00  4.136E+01  4.214E+00 -2.593E-01
   1   13    3     8     4    1.5672E+02 -4.3709E+00   1.6109E+02  0.000E+00  0.000E+00  0.000E+00  1.00600E+03  2.878E+00  4.174E+01  4.253E+00 -3.426E-01
   1   13    2     8     5    1.6109E+02 -3.3481E+00   1.6444E+02  0.000E+00  0.000E+00  0.000E+00  9.99779E+02  2.904E+00  4.211E+01  4.292E+00 -2.601E-01
   1   13    1     8     6    1.6444E+02 -2.4609E+00   1.6690E+02  0.000E+00  0.000E+00  0.000E+00  9.94799E+02  2.924E+00  4.239E+01  2.592E+00 -3.165E-01
   1    8    6     9     1    2.3358E+01  0.0000E+00   2.3358E+01  0.000E+00  0.000E+00  0.000E+00  1.08252E+03  3.770E+00  4.000E+00  0.000E+00  2.257E+00
   1    8    5     9     2    2.3358E+01  0.0000E+00   2.3358E+01  0.000E+00  0.000E+00  0.000E+00  1.08202E+03  3.770E+00  4.000E+00  0.000E+00  2.257E+00



 UBDSV3 SAVING "           GW ET" ON UNIT  61 AT TIME STEP  6, STRESS PERIOD   5
 UBDSV3 SAVING "    UZF RECHARGE" ON UNIT  61 AT TIME STEP  6, STRESS PERIOD   5
 UBDSV3 SAVING " SURFACE LEAKAGE" ON UNIT  61 AT TIME STEP  6, STRESS PERIOD   5
 UBDSV3 SAVING "       HORT+DUNN" ON UNIT  61 AT TIME STEP  6, STRESS PERIOD   5
 UBDSV3 SAVING "  STORAGE CHANGE" ON UNIT  61 AT TIME STEP  6, STRESS PERIOD   5


UNSATURATED ZONE PACKAGE VOLUMETRIC BUDGET FOR  TIME STEP     6 STRESS PERIOD    5
  ------------------------------------------------------------------------------



     CUMULATIVE VOLUMES      L**3       RATES FOR THIS TIME STEP      L**3/T
     ------------------                 ------------------------

           IN:                                      IN:
           ---                                      ---
        INFILTRATION =    51013791.0000          INFILTRATION =          84.2064

          OUT:                                     OUT:
          ----                                     ----
              UZF ET =      675925.5387                UZF ET =           1.4049
        UZF RECHARGE =     4432400.9550          UZF RECHARGE =           0.2681

            IN - OUT =    45905464.5064              IN - OUT =          82.5333

          STORAGE:                                 STORAGE:
          --------                                 --------
      STORAGE CHANGE =    45905464.0756        STORAGE CHANGE =          82.5333

 PERCENT DISCREPANCY IS DIFFERENCE BETWEEN IN-OUT MINUS CHANGE IN STORAGE
 DIVIDED BY THE AVERAGE OF IN AND OUT TIMES 100

 PERCENT DISCREPANCY =           0.00     PERCENT DISCREPANCY =           0.00






 

            AWU WELLS     PERIOD    5   STEP   6
 AWU WELL      1   LAYER   1   ROW     6   COL     4   RATE    -10.0000    
 AWU WELL      2   LAYER   1   ROW     6   COL     5   RATE    -10.0000    
 AWU WELL      3   LAYER   1   ROW     7   COL     4   RATE    -10.0000    
 AWU WELL      4   LAYER   1   ROW     7   COL     5   RATE    -10.0000    
 AWU WELL      5   LAYER   1   ROW     8   COL     4   RATE    -10.0000    
 AWU WELL      6   LAYER   1   ROW     8   COL     5   RATE    -10.0000    
 
 

   DIVERSION SEGMENTS     PERIOD    5   STEP   6
 SEGMENT      9   RATE     23.3584    
 
 

        SW IRRIGATION     PERIOD    5   STEP   6
 SEGMENT      9   ROW     6   COL     4   RATE     3.89315    
 SEGMENT      9   ROW     6   COL     5   RATE     3.89315    
 SEGMENT      9   ROW     7   COL     4   RATE     3.89315    
 SEGMENT      9   ROW     7   COL     5   RATE     3.89315    
 SEGMENT      9   ROW     8   COL     4   RATE     3.89315    
 SEGMENT      9   ROW     8   COL     5   RATE     3.89315    
 
 

        GW IRRIGATION     PERIOD    5   STEP   6
 AWU WELL      1   ROW     6   COL     4   RATE     10.0000    
 AWU WELL      2   ROW     6   COL     5   RATE     10.0000    
 AWU WELL      3   ROW     7   COL     4   RATE     10.0000    
 AWU WELL      4   ROW     7   COL     5   RATE     10.0000    
 AWU WELL      5   ROW     8   COL     4   RATE     10.0000    
 AWU WELL      6   ROW     8   COL     5   RATE     10.0000    
 
1
  VOLUMETRIC BUDGET FOR ENTIRE MODEL AT END OF TIME STEP    6, STRESS PERIOD   5
  ------------------------------------------------------------------------------

     CUMULATIVE VOLUMES      L**3       RATES FOR THIS TIME STEP      L**3/T
     ------------------                 ------------------------

           IN:                                      IN:
           ---                                      ---
               AWU WELLS =    31536000.0000                 AWU WELLS =          60.0000
      DIVERSION SEGMENTS =    12277183.0000        DIVERSION SEGMENTS =          23.3584
           GW IRRIGATION =           0.0000             GW IRRIGATION =           0.0000
           SW IRRIGATION =           0.0000             SW IRRIGATION =           0.0000
        SYSTEM LOSSES GW =           0.0000          SYSTEM LOSSES GW =           0.0000
        SYSTEM LOSSES SW =           0.0000          SYSTEM LOSSES SW =           0.0000

                TOTAL IN =    43813184.0000                  TOTAL IN =          83.3584

          OUT:                                     OUT:
          ----                                     ----
               AWU WELLS =           0.0000                 AWU WELLS =           0.0000
      DIVERSION SEGMENTS =           0.0000        DIVERSION SEGMENTS =           0.0000
           GW IRRIGATION =    31536000.0000             GW IRRIGATION =          60.0000
           SW IRRIGATION =    12277428.0000             SW IRRIGATION =          23.3589
        SYSTEM LOSSES GW =           0.0000          SYSTEM LOSSES GW =           0.0000
        SYSTEM LOSSES SW =           0.0000          SYSTEM LOSSES SW =           0.0000

               TOTAL OUT =    43813428.0000                 TOTAL OUT =          83.3589

                IN - OUT =        -244.0000                  IN - OUT =      -4.7302E-04

     PERCENT DISCREPANCY =          -0.00         PERCENT DISCREPANCY =          -0.00



1
  VOLUMETRIC BUDGET FOR ENTIRE MODEL AT END OF TIME STEP    6, STRESS PERIOD   5
  ------------------------------------------------------------------------------

     CUMULATIVE VOLUMES      L**3       RATES FOR THIS TIME STEP      L**3/T
     ------------------                 ------------------------

           IN:                                      IN:
           ---                                      ---
             STORAGE     =    38104296.0000               STORAGE     =          63.7762
       CONSTANT HEAD     =           0.0000         CONSTANT HEAD     =           0.0000
     HEAD DEP BOUNDS     =     2427814.0000       HEAD DEP BOUNDS     =           0.2858
      STREAM LEAKAGE     =   105640392.0000        STREAM LEAKAGE     =          11.3397
        UZF RECHARGE     =     4432400.5000          UZF RECHARGE     =           0.2681
               GW ET     =           0.0000                 GW ET     =           0.0000
     SURFACE LEAKAGE     =           0.0000       SURFACE LEAKAGE     =           0.0000
           AWU WELLS     =           0.0000             AWU WELLS     =           0.0000

                TOTAL IN =   150604912.0000                  TOTAL IN =          75.6697

          OUT:                                     OUT:
          ----                                     ----
             STORAGE     =    28965776.0000               STORAGE     =           1.2776
       CONSTANT HEAD     =           0.0000         CONSTANT HEAD     =           0.0000
     HEAD DEP BOUNDS     =     2477414.2500       HEAD DEP BOUNDS     =           0.2944
      STREAM LEAKAGE     =    87200904.0000        STREAM LEAKAGE     =          13.5944
        UZF RECHARGE     =           0.0000          UZF RECHARGE     =           0.0000
               GW ET     =      432686.5312                 GW ET     =           0.5035
     SURFACE LEAKAGE     =           0.0000       SURFACE LEAKAGE     =           0.0000
           AWU WELLS     =    31536000.0000             AWU WELLS     =          60.0000

               TOTAL OUT =   150612784.0000                 TOTAL OUT =          75.6699

                IN - OUT =       -7872.0000                  IN - OUT =      -1.6785E-04

     PERCENT DISCREPANCY =          -0.01         PERCENT DISCREPANCY =          -0.00






         TIME SUMMARY AT END OF TIME STEP    6 IN STRESS PERIOD    5
                    SECONDS     MINUTES      HOURS       DAYS        YEARS
                    -----------------------------------------------------------
   TIME STEP LENGTH  87600.      1460.0      24.333      1.0139     2.77588E-03
 STRESS PERIOD TIME 5.25600E+05  8760.0      146.00      6.0833     1.66553E-02
         TOTAL TIME 8.49600E+06 1.41600E+05  2360.0      98.333     0.26922    
1
 
 SOLVING FOR HEAD 
                                                   Max.-Head-Change                         Max.-Flux-Residual
  Residual-Control   Outer-Iter.   Inner-Iter.     Column Row Layer    Maximum-Head-Change  Column Row Layer    Maximum-Flux-Residual          L2-NORM 
          0                 1           2             5    8     1       0.2783124962E-01       5    8    1         0.1531023011E+01      0.3444199662E+01
          0                 2           2             5    8     1      -0.2707266805E-02       5    8    1        -0.1531046577E+00      0.3469310329E+00
          0                 3           2             5    8     1       0.1843544877E-03       5    8    1         0.1071730838E-01      0.2427198414E-01
          0                 4           1             5    8     1      -0.7335639653E-05       5    8    1        -0.4383386404E-03      0.9988584277E-03

    ------------------------------------------------
       NWT REQUIRED            4 OUTER ITERATIONS 
       AND A TOTAL OF          7 INNER ITERATIONS.
    ------------------------------------------------

 OUTPUT CONTROL FOR STRESS PERIOD    5   TIME STEP    7
    PRINT BUDGET
    SAVE BUDGET
 UBDSV1 SAVING "         STORAGE" ON UNIT 102 AT TIME STEP  7, STRESS PERIOD   5
 UBDSV2 SAVING "   CONSTANT HEAD" ON UNIT 102 AT TIME STEP  7, STRESS PERIOD   5
 UBDSV1 SAVING "FLOW RIGHT FACE " ON UNIT 102 AT TIME STEP  7, STRESS PERIOD   5
 UBDSV1 SAVING "FLOW FRONT FACE " ON UNIT 102 AT TIME STEP  7, STRESS PERIOD   5

  HEAD DEP BOUNDS   PERIOD    5   STEP     7
 BOUNDARY      1   LAYER   1   ROW    13   COL     1   RATE   -0.294207    
 BOUNDARY      2   LAYER   1   ROW    14   COL     9   RATE    0.285764    



 STREAM LISTING     PERIOD      5   STEP        7

 LAYER ROW COL. STREAM  RCH.  FLOW INTO     FLOW TO   FLOW OUT OF   OVRLND.     DIRECT     STREAM       STREAM     STREAM     STREAM   STREAMBED  STREAMBED
                SEG.NO.  NO.  STRM. RCH.    AQUIFER    STRM. RCH.    RUNOFF     PRECIP       ET          HEAD       DEPTH      WIDTH   CONDCTNC.   GRADIENT

   1    1    1     1     1    2.8000E+01  2.5860E-01   2.7741E+01  0.000E+00  0.000E+00  0.000E+00  1.09427E+03  1.221E+00  1.361E+01  6.126E-02  1.407E+00
   1    2    2     1     2    2.7741E+01  4.0002E-01   2.7341E+01  0.000E+00  0.000E+00  0.000E+00  1.08928E+03  1.217E+00  1.355E+01  9.487E-02  1.406E+00
   1    3    3     1     3    2.7341E+01  3.4070E-01   2.7001E+01  0.000E+00  0.000E+00  0.000E+00  1.08363E+03  1.212E+00  1.348E+01  8.090E-02  1.404E+00
   1    3    4     1     4    2.7001E+01  3.1335E-01   2.6687E+01  0.000E+00  0.000E+00  0.000E+00  1.07861E+03  1.207E+00  1.342E+01  7.448E-02  1.402E+00
   1    4    5     2     1    2.4687E+01  3.2711E-01   2.4360E+01  0.000E+00  0.000E+00  0.000E+00  1.07313E+03  1.194E+00  1.200E+01  7.800E-02  1.398E+00
   1    5    6     2     2    2.4360E+01  2.5111E-01   2.4109E+01  0.000E+00  0.000E+00  0.000E+00  1.06769E+03  1.185E+00  1.200E+01  6.000E-02  1.395E+00
   1    6    6     2     3    2.4109E+01  2.5067E-01   2.3858E+01  0.000E+00  0.000E+00  0.000E+00  1.06297E+03  1.178E+00  1.200E+01  6.000E-02  1.393E+00
   1    7    6     2     4    2.3858E+01  2.5023E-01   2.3608E+01  0.000E+00  0.000E+00  0.000E+00  1.05825E+03  1.170E+00  1.200E+01  6.000E-02  1.390E+00
   1    8    6     2     5    2.3608E+01  2.4978E-01   2.3358E+01  0.000E+00  0.000E+00  0.000E+00  1.05352E+03  1.163E+00  1.200E+01  6.000E-02  1.388E+00
   1    3    5     3     1    2.0000E+00  2.8252E-01   1.7175E+00  0.000E+00  0.000E+00  0.000E+00  1.07555E+03  1.909E+00  9.636E+00  7.227E-02  1.955E+00
   1    3    6     3     2    1.7175E+00  2.4905E-01   1.4684E+00  0.000E+00  0.000E+00  0.000E+00  1.07264E+03  1.727E+00  8.909E+00  6.682E-02  1.864E+00
   1    3    7     3     3    1.4684E+00  1.9718E-01   1.2712E+00  0.000E+00  0.000E+00  0.000E+00  1.06987E+03  1.555E+00  8.218E+00  5.547E-02  1.777E+00
   1    4    8     3     4    1.2712E+00  2.2567E-01   1.0456E+00  0.000E+00  0.000E+00  0.000E+00  1.06682E+03  1.364E+00  7.455E+00  6.709E-02  1.682E+00
   1    5    8     3     5    1.0456E+00  1.5790E-01   8.8768E-01  0.000E+00  0.000E+00  0.000E+00  1.06362E+03  1.164E+00  6.655E+00  4.991E-02  1.582E+00
   1    6    8     3     6    8.8768E-01  5.5980E-02   8.3170E-01  0.000E+00  0.000E+00  0.000E+00  1.06158E+03  1.036E+00  6.145E+00  1.844E-02  1.518E+00
   1    5   10     4     1    1.0000E+01  9.0919E-02   9.9091E+00  0.000E+00  0.000E+00  0.000E+00  1.07836E+03  6.368E-01  1.000E+01  2.500E-02  1.212E+00
   1    5    9     4     2    9.9091E+00  1.8158E-01   9.7275E+00  0.000E+00  0.000E+00  0.000E+00  1.07154E+03  6.315E-01  1.000E+01  5.000E-02  1.211E+00
   1    6    8     4     3    9.7275E+00  1.2689E-01   9.6006E+00  0.000E+00  0.000E+00  0.000E+00  1.06381E+03  6.256E-01  1.000E+01  3.500E-02  1.209E+00
   1    6    8     5     1    1.0432E+01  2.2686E-01   1.0205E+01  0.000E+00  0.000E+00  0.000E+00  1.05868E+03  6.790E-01  1.542E+01  6.166E-02  1.226E+00
   1    7    7     5     2    1.0205E+01  2.7894E-01   9.9265E+00  0.000E+00  0.000E+00  0.000E+00  1.05417E+03  6.732E-01  1.519E+01  7.594E-02  1.224E+00
   1    8    7     5     3    9.9265E+00  1.9221E-01   9.7343E+00  0.000E+00  0.000E+00  0.000E+00  1.04992E+03  6.676E-01  1.497E+01  5.241E-02  1.223E+00
   1    8    6     5     4    9.7343E+00  1.3577E-01   9.5985E+00  0.000E+00  0.000E+00  0.000E+00  1.04691E+03  6.637E-01  1.482E+01  3.706E-02  1.221E+00
   1    9    6     6     1    3.2957E+01  2.6627E-01   3.2691E+01  0.000E+00  0.000E+00  0.000E+00  1.04417E+03  1.438E+00  1.200E+01  6.000E-02  1.479E+00
   1   10    7     6     2    3.2691E+01  2.6584E-01   3.2425E+01  0.000E+00  0.000E+00  0.000E+00  1.03961E+03  1.431E+00  1.200E+01  6.000E-02  1.477E+00
   1   11    7     6     3    3.2425E+01  2.6542E-01   3.2159E+01  0.000E+00  0.000E+00  0.000E+00  1.03506E+03  1.424E+00  1.200E+01  6.000E-02  1.475E+00
   1   12    7     6     4    3.2159E+01  2.6500E-01   3.1894E+01  0.000E+00  0.000E+00  0.000E+00  1.03051E+03  1.417E+00  1.200E+01  6.000E-02  1.472E+00
   1   13    7     6     5    3.1894E+01  4.6341E-03   3.1890E+01  0.000E+00  0.000E+00  0.000E+00  1.02732E+03  1.413E+00  1.200E+01  2.400E-02  6.436E-02
   1   14    9     7     1    1.5000E+02  1.3359E+00   1.4866E+02  0.000E+00  0.000E+00  0.000E+00  1.03987E+03  2.288E+00  5.529E+01  5.593E-01  7.962E-01
   1   13    8     7     2    1.4866E+02  1.8256E+00   1.4684E+02  0.000E+00  0.000E+00  0.000E+00  1.03478E+03  2.279E+00  5.526E+01  6.148E-01  9.899E-01
   1   13    7     7     3    1.4684E+02  1.4301E+00   1.4541E+02  0.000E+00  0.000E+00  0.000E+00  1.02969E+03  2.271E+00  5.522E+01  5.585E-01  8.536E-01
   1   13    6     8     1    1.7730E+02  8.8511E-01   1.7641E+02  0.000E+00  0.000E+00  0.000E+00  1.02487E+03  2.996E+00  4.345E+01  4.427E-01  6.664E-01
   1   13    5     8     2    1.7641E+02  1.1969E-01   1.7629E+02  0.000E+00  0.000E+00  0.000E+00  1.01862E+03  2.993E+00  4.340E+01  4.423E-01  9.021E-02
   1   13    4     8     3    1.7629E+02 -2.7668E+00   1.7906E+02  0.000E+00  0.000E+00  0.000E+00  1.01238E+03  3.002E+00  4.352E+01  4.435E+00 -2.080E-01
   1   13    3     8     4    1.7906E+02 -3.9214E+00   1.8298E+02  0.000E+00  0.000E+00  0.000E+00  1.00615E+03  3.023E+00  4.383E+01  4.466E+00 -2.927E-01
   1   13    2     8     5    1.8298E+02 -2.8560E+00   1.8584E+02  0.000E+00  0.000E+00  0.000E+00  9.99919E+02  3.044E+00  4.413E+01  4.497E+00 -2.117E-01
   1   13    1     8     6    1.8584E+02 -2.1916E+00   1.8803E+02  0.000E+00  0.000E+00  0.000E+00  9.94934E+02  3.059E+00  4.436E+01  2.712E+00 -2.694E-01
   1    8    6     9     1    0.0000E+00  0.0000E+00   0.0000E+00  0.000E+00  0.000E+00  0.000E+00  1.07875E+03  0.000E+00  4.000E+00  0.000E+00  1.000E+00
   1    8    5     9     2    0.0000E+00  0.0000E+00   0.0000E+00  0.000E+00  0.000E+00  0.000E+00  1.07825E+03  0.000E+00  4.000E+00  0.000E+00  1.000E+00



 UBDSV3 SAVING "           GW ET" ON UNIT  61 AT TIME STEP  7, STRESS PERIOD   5
 UBDSV3 SAVING "    UZF RECHARGE" ON UNIT  61 AT TIME STEP  7, STRESS PERIOD   5
 UBDSV3 SAVING " SURFACE LEAKAGE" ON UNIT  61 AT TIME STEP  7, STRESS PERIOD   5
 UBDSV3 SAVING "       HORT+DUNN" ON UNIT  61 AT TIME STEP  7, STRESS PERIOD   5
 UBDSV3 SAVING "  STORAGE CHANGE" ON UNIT  61 AT TIME STEP  7, STRESS PERIOD   5


UNSATURATED ZONE PACKAGE VOLUMETRIC BUDGET FOR  TIME STEP     7 STRESS PERIOD    5
  ------------------------------------------------------------------------------



     CUMULATIVE VOLUMES      L**3       RATES FOR THIS TIME STEP      L**3/T
     ------------------                 ------------------------

           IN:                                      IN:
           ---                                      ---
        INFILTRATION =    51088032.0000          INFILTRATION =           0.8475

          OUT:                                     OUT:
          ----                                     ----
              UZF ET =      807639.7874                UZF ET =           1.5036
        UZF RECHARGE =     4455228.6954          UZF RECHARGE =           0.2606

            IN - OUT =    45825163.5172              IN - OUT =          -0.9167

          STORAGE:                                 STORAGE:
          --------                                 --------
      STORAGE CHANGE =    45837713.2144        STORAGE CHANGE =          -0.7734

 PERCENT DISCREPANCY IS DIFFERENCE BETWEEN IN-OUT MINUS CHANGE IN STORAGE
 DIVIDED BY THE AVERAGE OF IN AND OUT TIMES 100

 PERCENT DISCREPANCY =          -0.01     PERCENT DISCREPANCY =          -8.12






 

            AWU WELLS     PERIOD    5   STEP   7
 AWU WELL      1   LAYER   1   ROW     6   COL     4   RATE     0.00000    
 AWU WELL      2   LAYER   1   ROW     6   COL     5   RATE     0.00000    
 AWU WELL      3   LAYER   1   ROW     7   COL     4   RATE     0.00000    
 AWU WELL      4   LAYER   1   ROW     7   COL     5   RATE     0.00000    
 AWU WELL      5   LAYER   1   ROW     8   COL     4   RATE     0.00000    
 AWU WELL      6   LAYER   1   ROW     8   COL     5   RATE     0.00000    
 
 

   DIVERSION SEGMENTS     PERIOD    5   STEP   7
 SEGMENT      9   RATE     0.00000    
 
 

        SW IRRIGATION     PERIOD    5   STEP   7
 SEGMENT      9   ROW     6   COL     4   RATE     0.00000    
 SEGMENT      9   ROW     6   COL     5   RATE     0.00000    
 SEGMENT      9   ROW     7   COL     4   RATE     0.00000    
 SEGMENT      9   ROW     7   COL     5   RATE     0.00000    
 SEGMENT      9   ROW     8   COL     4   RATE     0.00000    
 SEGMENT      9   ROW     8   COL     5   RATE     0.00000    
 
 

        GW IRRIGATION     PERIOD    5   STEP   7
 AWU WELL      1   ROW     6   COL     4   RATE     0.00000    
 AWU WELL      2   ROW     6   COL     5   RATE     0.00000    
 AWU WELL      3   ROW     7   COL     4   RATE     0.00000    
 AWU WELL      4   ROW     7   COL     5   RATE     0.00000    
 AWU WELL      5   ROW     8   COL     4   RATE     0.00000    
 AWU WELL      6   ROW     8   COL     5   RATE     0.00000    
 
1
  VOLUMETRIC BUDGET FOR ENTIRE MODEL AT END OF TIME STEP    7, STRESS PERIOD   5
  ------------------------------------------------------------------------------

     CUMULATIVE VOLUMES      L**3       RATES FOR THIS TIME STEP      L**3/T
     ------------------                 ------------------------

           IN:                                      IN:
           ---                                      ---
               AWU WELLS =    31536000.0000                 AWU WELLS =           0.0000
      DIVERSION SEGMENTS =    12277183.0000        DIVERSION SEGMENTS =           0.0000
           GW IRRIGATION =           0.0000             GW IRRIGATION =           0.0000
           SW IRRIGATION =           0.0000             SW IRRIGATION =           0.0000
        SYSTEM LOSSES GW =           0.0000          SYSTEM LOSSES GW =           0.0000
        SYSTEM LOSSES SW =           0.0000          SYSTEM LOSSES SW =           0.0000

                TOTAL IN =    43813184.0000                  TOTAL IN =           0.0000

          OUT:                                     OUT:
          ----                                     ----
               AWU WELLS =           0.0000                 AWU WELLS =           0.0000
      DIVERSION SEGMENTS =           0.0000        DIVERSION SEGMENTS =           0.0000
           GW IRRIGATION =    31536000.0000             GW IRRIGATION =           0.0000
           SW IRRIGATION =    12277428.0000             SW IRRIGATION =           0.0000
        SYSTEM LOSSES GW =           0.0000          SYSTEM LOSSES GW =           0.0000
        SYSTEM LOSSES SW =           0.0000          SYSTEM LOSSES SW =           0.0000

               TOTAL OUT =    43813428.0000                 TOTAL OUT =           0.0000

                IN - OUT =        -244.0000                  IN - OUT =           0.0000

     PERCENT DISCREPANCY =          -0.00         PERCENT DISCREPANCY =           0.00



1
  VOLUMETRIC BUDGET FOR ENTIRE MODEL AT END OF TIME STEP    7, STRESS PERIOD   5
  ------------------------------------------------------------------------------

     CUMULATIVE VOLUMES      L**3       RATES FOR THIS TIME STEP      L**3/T
     ------------------                 ------------------------

           IN:                                      IN:
           ---                                      ---
             STORAGE     =    38772544.0000               STORAGE     =           7.6284
       CONSTANT HEAD     =           0.0000         CONSTANT HEAD     =           0.0000
     HEAD DEP BOUNDS     =     2452847.0000       HEAD DEP BOUNDS     =           0.2858
      STREAM LEAKAGE     =   106665896.0000        STREAM LEAKAGE     =          11.7067
        UZF RECHARGE     =     4455228.0000          UZF RECHARGE     =           0.2606
               GW ET     =           0.0000                 GW ET     =           0.0000
     SURFACE LEAKAGE     =           0.0000       SURFACE LEAKAGE     =           0.0000
           AWU WELLS     =           0.0000             AWU WELLS     =           0.0000

                TOTAL IN =   152346528.0000                  TOTAL IN =          19.8814

          OUT:                                     OUT:
          ----                                     ----
             STORAGE     =    29609532.0000               STORAGE     =           7.3488
       CONSTANT HEAD     =           0.0000         CONSTANT HEAD     =           0.0000
     HEAD DEP BOUNDS     =     2503186.7500       HEAD DEP BOUNDS     =           0.2942
      STREAM LEAKAGE     =    88228952.0000        STREAM LEAKAGE     =          11.7357
        UZF RECHARGE     =           0.0000          UZF RECHARGE     =           0.0000
               GW ET     =      476716.6562                 GW ET     =           0.5026
     SURFACE LEAKAGE     =           0.0000       SURFACE LEAKAGE     =           0.0000
           AWU WELLS     =    31536000.0000             AWU WELLS     =           0.0000

               TOTAL OUT =   152354400.0000                 TOTAL OUT =          19.8814

                IN - OUT =       -7872.0000                  IN - OUT =       5.3406E-05

     PERCENT DISCREPANCY =          -0.01         PERCENT DISCREPANCY =           0.00






         TIME SUMMARY AT END OF TIME STEP    7 IN STRESS PERIOD    5
                    SECONDS     MINUTES      HOURS       DAYS        YEARS
                    -----------------------------------------------------------
   TIME STEP LENGTH  87600.      1460.0      24.333      1.0139     2.77588E-03
 STRESS PERIOD TIME 6.13200E+05  10220.      170.33      7.0972     1.94311E-02
         TOTAL TIME 8.58360E+06 1.43060E+05  2384.3      99.347     0.27200    
1
 
 SOLVING FOR HEAD 
                                                   Max.-Head-Change                         Max.-Flux-Residual
  Residual-Control   Outer-Iter.   Inner-Iter.     Column Row Layer    Maximum-Head-Change  Column Row Layer    Maximum-Flux-Residual          L2-NORM 
          0                 1           2             5    8     1       0.2633419439E-01       5    8    1         0.1447403118E+01      0.3281073097E+01
          0                 2           2             5    8     1      -0.2561638661E-02       5    8    1        -0.1447423893E+00      0.3269025896E+00
          0                 3           2             5    8     1       0.1744378119E-03       5    8    1         0.1013195197E-01      0.2287142114E-01
          0                 4           1             5    8     1      -0.6941045329E-05       5    8    1        -0.4143975143E-03      0.9418300809E-03

    ------------------------------------------------
       NWT REQUIRED            4 OUTER ITERATIONS 
       AND A TOTAL OF          7 INNER ITERATIONS.
    ------------------------------------------------

 OUTPUT CONTROL FOR STRESS PERIOD    5   TIME STEP    8
    PRINT BUDGET
    SAVE BUDGET
 UBDSV1 SAVING "         STORAGE" ON UNIT 102 AT TIME STEP  8, STRESS PERIOD   5
 UBDSV2 SAVING "   CONSTANT HEAD" ON UNIT 102 AT TIME STEP  8, STRESS PERIOD   5
 UBDSV1 SAVING "FLOW RIGHT FACE " ON UNIT 102 AT TIME STEP  8, STRESS PERIOD   5
 UBDSV1 SAVING "FLOW FRONT FACE " ON UNIT 102 AT TIME STEP  8, STRESS PERIOD   5

  HEAD DEP BOUNDS   PERIOD    5   STEP     8
 BOUNDARY      1   LAYER   1   ROW    13   COL     1   RATE   -0.293994    
 BOUNDARY      2   LAYER   1   ROW    14   COL     9   RATE    0.285763    



 STREAM LISTING     PERIOD      5   STEP        8

 LAYER ROW COL. STREAM  RCH.  FLOW INTO     FLOW TO   FLOW OUT OF   OVRLND.     DIRECT     STREAM       STREAM     STREAM     STREAM   STREAMBED  STREAMBED
                SEG.NO.  NO.  STRM. RCH.    AQUIFER    STRM. RCH.    RUNOFF     PRECIP       ET          HEAD       DEPTH      WIDTH   CONDCTNC.   GRADIENT

   1    1    1     1     1    2.8000E+01  2.5860E-01   2.7741E+01  0.000E+00  0.000E+00  0.000E+00  1.09427E+03  1.221E+00  1.361E+01  6.126E-02  1.407E+00
   1    2    2     1     2    2.7741E+01  4.0002E-01   2.7341E+01  0.000E+00  0.000E+00  0.000E+00  1.08928E+03  1.217E+00  1.355E+01  9.487E-02  1.406E+00
   1    3    3     1     3    2.7341E+01  3.4070E-01   2.7001E+01  0.000E+00  0.000E+00  0.000E+00  1.08363E+03  1.212E+00  1.348E+01  8.090E-02  1.404E+00
   1    3    4     1     4    2.7001E+01  3.1335E-01   2.6687E+01  0.000E+00  0.000E+00  0.000E+00  1.07861E+03  1.207E+00  1.342E+01  7.448E-02  1.402E+00
   1    4    5     2     1    2.4687E+01  3.2711E-01   2.4360E+01  0.000E+00  0.000E+00  0.000E+00  1.07313E+03  1.194E+00  1.200E+01  7.800E-02  1.398E+00
   1    5    6     2     2    2.4360E+01  2.5111E-01   2.4109E+01  0.000E+00  0.000E+00  0.000E+00  1.06769E+03  1.185E+00  1.200E+01  6.000E-02  1.395E+00
   1    6    6     2     3    2.4109E+01  2.5067E-01   2.3858E+01  0.000E+00  0.000E+00  0.000E+00  1.06297E+03  1.178E+00  1.200E+01  6.000E-02  1.393E+00
   1    7    6     2     4    2.3858E+01  2.5023E-01   2.3608E+01  0.000E+00  0.000E+00  0.000E+00  1.05825E+03  1.170E+00  1.200E+01  6.000E-02  1.390E+00
   1    8    6     2     5    2.3608E+01  2.4978E-01   2.3358E+01  0.000E+00  0.000E+00  0.000E+00  1.05352E+03  1.163E+00  1.200E+01  6.000E-02  1.388E+00
   1    3    5     3     1    2.0000E+00  2.8252E-01   1.7175E+00  0.000E+00  0.000E+00  0.000E+00  1.07555E+03  1.909E+00  9.636E+00  7.227E-02  1.955E+00
   1    3    6     3     2    1.7175E+00  2.4905E-01   1.4684E+00  0.000E+00  0.000E+00  0.000E+00  1.07264E+03  1.727E+00  8.909E+00  6.682E-02  1.864E+00
   1    3    7     3     3    1.4684E+00  1.9718E-01   1.2712E+00  0.000E+00  0.000E+00  0.000E+00  1.06987E+03  1.555E+00  8.218E+00  5.547E-02  1.777E+00
   1    4    8     3     4    1.2712E+00  2.2567E-01   1.0456E+00  0.000E+00  0.000E+00  0.000E+00  1.06682E+03  1.364E+00  7.455E+00  6.709E-02  1.682E+00
   1    5    8     3     5    1.0456E+00  1.5790E-01   8.8768E-01  0.000E+00  0.000E+00  0.000E+00  1.06362E+03  1.164E+00  6.655E+00  4.991E-02  1.582E+00
   1    6    8     3     6    8.8768E-01  5.5980E-02   8.3170E-01  0.000E+00  0.000E+00  0.000E+00  1.06158E+03  1.036E+00  6.145E+00  1.844E-02  1.518E+00
   1    5   10     4     1    1.0000E+01  9.0919E-02   9.9091E+00  0.000E+00  0.000E+00  0.000E+00  1.07836E+03  6.368E-01  1.000E+01  2.500E-02  1.212E+00
   1    5    9     4     2    9.9091E+00  1.8158E-01   9.7275E+00  0.000E+00  0.000E+00  0.000E+00  1.07154E+03  6.315E-01  1.000E+01  5.000E-02  1.211E+00
   1    6    8     4     3    9.7275E+00  1.2689E-01   9.6006E+00  0.000E+00  0.000E+00  0.000E+00  1.06381E+03  6.256E-01  1.000E+01  3.500E-02  1.209E+00
   1    6    8     5     1    1.0432E+01  2.2686E-01   1.0205E+01  0.000E+00  0.000E+00  0.000E+00  1.05868E+03  6.790E-01  1.542E+01  6.166E-02  1.226E+00
   1    7    7     5     2    1.0205E+01  2.7894E-01   9.9265E+00  0.000E+00  0.000E+00  0.000E+00  1.05417E+03  6.732E-01  1.519E+01  7.594E-02  1.224E+00
   1    8    7     5     3    9.9265E+00  1.9221E-01   9.7343E+00  0.000E+00  0.000E+00  0.000E+00  1.04992E+03  6.676E-01  1.497E+01  5.241E-02  1.223E+00
   1    8    6     5     4    9.7343E+00  1.3577E-01   9.5985E+00  0.000E+00  0.000E+00  0.000E+00  1.04691E+03  6.637E-01  1.482E+01  3.706E-02  1.221E+00
   1    9    6     6     1    3.2957E+01  2.6627E-01   3.2691E+01  0.000E+00  0.000E+00  0.000E+00  1.04417E+03  1.438E+00  1.200E+01  6.000E-02  1.479E+00
   1   10    7     6     2    3.2691E+01  2.6584E-01   3.2425E+01  0.000E+00  0.000E+00  0.000E+00  1.03961E+03  1.431E+00  1.200E+01  6.000E-02  1.477E+00
   1   11    7     6     3    3.2425E+01  2.6542E-01   3.2159E+01  0.000E+00  0.000E+00  0.000E+00  1.03506E+03  1.424E+00  1.200E+01  6.000E-02  1.475E+00
   1   12    7     6     4    3.2159E+01  2.6500E-01   3.1894E+01  0.000E+00  0.000E+00  0.000E+00  1.03051E+03  1.417E+00  1.200E+01  6.000E-02  1.472E+00
   1   13    7     6     5    3.1894E+01  4.6207E-03   3.1890E+01  0.000E+00  0.000E+00  0.000E+00  1.02732E+03  1.413E+00  1.200E+01  2.400E-02  6.418E-02
   1   14    9     7     1    1.5000E+02  1.3359E+00   1.4866E+02  0.000E+00  0.000E+00  0.000E+00  1.03987E+03  2.288E+00  5.529E+01  5.593E-01  7.962E-01
   1   13    8     7     2    1.4866E+02  1.8255E+00   1.4684E+02  0.000E+00  0.000E+00  0.000E+00  1.03478E+03  2.279E+00  5.526E+01  6.148E-01  9.898E-01
   1   13    7     7     3    1.4684E+02  1.4298E+00   1.4541E+02  0.000E+00  0.000E+00  0.000E+00  1.02969E+03  2.271E+00  5.522E+01  5.585E-01  8.534E-01
   1   13    6     8     1    1.7730E+02  8.8572E-01   1.7641E+02  0.000E+00  0.000E+00  0.000E+00  1.02487E+03  2.996E+00  4.345E+01  4.427E-01  6.669E-01
   1   13    5     8     2    1.7641E+02  1.2078E-01   1.7629E+02  0.000E+00  0.000E+00  0.000E+00  1.01862E+03  2.993E+00  4.340E+01  4.423E-01  9.103E-02
   1   13    4     8     3    1.7629E+02 -2.7479E+00   1.7904E+02  0.000E+00  0.000E+00  0.000E+00  1.01238E+03  3.001E+00  4.352E+01  4.435E+00 -2.065E-01
   1   13    3     8     4    1.7904E+02 -3.8994E+00   1.8294E+02  0.000E+00  0.000E+00  0.000E+00  1.00615E+03  3.022E+00  4.382E+01  4.466E+00 -2.911E-01
   1   13    2     8     5    1.8294E+02 -2.8327E+00   1.8577E+02  0.000E+00  0.000E+00  0.000E+00  9.99918E+02  3.043E+00  4.413E+01  4.497E+00 -2.100E-01
   1   13    1     8     6    1.8577E+02 -2.1773E+00   1.8795E+02  0.000E+00  0.000E+00  0.000E+00  9.94934E+02  3.059E+00  4.435E+01  2.712E+00 -2.676E-01
   1    8    6     9     1    0.0000E+00  0.0000E+00   0.0000E+00  0.000E+00  0.000E+00  0.000E+00  1.07875E+03  0.000E+00  4.000E+00  0.000E+00  1.000E+00
   1    8    5     9     2    0.0000E+00  0.0000E+00   0.0000E+00  0.000E+00  0.000E+00  0.000E+00  1.07825E+03  0.000E+00  4.000E+00  0.000E+00  1.000E+00



 UBDSV3 SAVING "           GW ET" ON UNIT  61 AT TIME STEP  8, STRESS PERIOD   5
 UBDSV3 SAVING "    UZF RECHARGE" ON UNIT  61 AT TIME STEP  8, STRESS PERIOD   5
 UBDSV3 SAVING " SURFACE LEAKAGE" ON UNIT  61 AT TIME STEP  8, STRESS PERIOD   5
 UBDSV3 SAVING "       HORT+DUNN" ON UNIT  61 AT TIME STEP  8, STRESS PERIOD   5
 UBDSV3 SAVING "  STORAGE CHANGE" ON UNIT  61 AT TIME STEP  8, STRESS PERIOD   5


UNSATURATED ZONE PACKAGE VOLUMETRIC BUDGET FOR  TIME STEP     8 STRESS PERIOD    5
  ------------------------------------------------------------------------------



     CUMULATIVE VOLUMES      L**3       RATES FOR THIS TIME STEP      L**3/T
     ------------------                 ------------------------

           IN:                                      IN:
           ---                                      ---
        INFILTRATION =    51162273.0000          INFILTRATION =           0.8475

          OUT:                                     OUT:
          ----                                     ----
              UZF ET =      947904.9539                UZF ET =           1.6012
        UZF RECHARGE =     4477575.3157          UZF RECHARGE =           0.2551

            IN - OUT =    45736792.7304              IN - OUT =          -1.0088

          STORAGE:                                 STORAGE:
          --------                                 --------
      STORAGE CHANGE =    45749354.0081        STORAGE CHANGE =          -1.0087

 PERCENT DISCREPANCY IS DIFFERENCE BETWEEN IN-OUT MINUS CHANGE IN STORAGE
 DIVIDED BY THE AVERAGE OF IN AND OUT TIMES 100

 PERCENT DISCREPANCY =          -0.01     PERCENT DISCREPANCY =          -0.01






 

            AWU WELLS     PERIOD    5   STEP   8
 AWU WELL      1   LAYER   1   ROW     6   COL     4   RATE     0.00000    
 AWU WELL      2   LAYER   1   ROW     6   COL     5   RATE     0.00000    
 AWU WELL      3   LAYER   1   ROW     7   COL     4   RATE     0.00000    
 AWU WELL      4   LAYER   1   ROW     7   COL     5   RATE     0.00000    
 AWU WELL      5   LAYER   1   ROW     8   COL     4   RATE     0.00000    
 AWU WELL      6   LAYER   1   ROW     8   COL     5   RATE     0.00000    
 
 

   DIVERSION SEGMENTS     PERIOD    5   STEP   8
 SEGMENT      9   RATE     0.00000    
 
 

        SW IRRIGATION     PERIOD    5   STEP   8
 SEGMENT      9   ROW     6   COL     4   RATE     0.00000    
 SEGMENT      9   ROW     6   COL     5   RATE     0.00000    
 SEGMENT      9   ROW     7   COL     4   RATE     0.00000    
 SEGMENT      9   ROW     7   COL     5   RATE     0.00000    
 SEGMENT      9   ROW     8   COL     4   RATE     0.00000    
 SEGMENT      9   ROW     8   COL     5   RATE     0.00000    
 
 

        GW IRRIGATION     PERIOD    5   STEP   8
 AWU WELL      1   ROW     6   COL     4   RATE     0.00000    
 AWU WELL      2   ROW     6   COL     5   RATE     0.00000    
 AWU WELL      3   ROW     7   COL     4   RATE     0.00000    
 AWU WELL      4   ROW     7   COL     5   RATE     0.00000    
 AWU WELL      5   ROW     8   COL     4   RATE     0.00000    
 AWU WELL      6   ROW     8   COL     5   RATE     0.00000    
 
1
  VOLUMETRIC BUDGET FOR ENTIRE MODEL AT END OF TIME STEP    8, STRESS PERIOD   5
  ------------------------------------------------------------------------------

     CUMULATIVE VOLUMES      L**3       RATES FOR THIS TIME STEP      L**3/T
     ------------------                 ------------------------

           IN:                                      IN:
           ---                                      ---
               AWU WELLS =    31536000.0000                 AWU WELLS =           0.0000
      DIVERSION SEGMENTS =    12277183.0000        DIVERSION SEGMENTS =           0.0000
           GW IRRIGATION =           0.0000             GW IRRIGATION =           0.0000
           SW IRRIGATION =           0.0000             SW IRRIGATION =           0.0000
        SYSTEM LOSSES GW =           0.0000          SYSTEM LOSSES GW =           0.0000
        SYSTEM LOSSES SW =           0.0000          SYSTEM LOSSES SW =           0.0000

                TOTAL IN =    43813184.0000                  TOTAL IN =           0.0000

          OUT:                                     OUT:
          ----                                     ----
               AWU WELLS =           0.0000                 AWU WELLS =           0.0000
      DIVERSION SEGMENTS =           0.0000        DIVERSION SEGMENTS =           0.0000
           GW IRRIGATION =    31536000.0000             GW IRRIGATION =           0.0000
           SW IRRIGATION =    12277428.0000             SW IRRIGATION =           0.0000
        SYSTEM LOSSES GW =           0.0000          SYSTEM LOSSES GW =           0.0000
        SYSTEM LOSSES SW =           0.0000          SYSTEM LOSSES SW =           0.0000

               TOTAL OUT =    43813428.0000                 TOTAL OUT =           0.0000

                IN - OUT =        -244.0000                  IN - OUT =           0.0000

     PERCENT DISCREPANCY =          -0.00         PERCENT DISCREPANCY =           0.00



1
  VOLUMETRIC BUDGET FOR ENTIRE MODEL AT END OF TIME STEP    8, STRESS PERIOD   5
  ------------------------------------------------------------------------------

     CUMULATIVE VOLUMES      L**3       RATES FOR THIS TIME STEP      L**3/T
     ------------------                 ------------------------

           IN:                                      IN:
           ---                                      ---
             STORAGE     =    39412740.0000               STORAGE     =           7.3082
       CONSTANT HEAD     =           0.0000         CONSTANT HEAD     =           0.0000
     HEAD DEP BOUNDS     =     2477879.7500       HEAD DEP BOUNDS     =           0.2858
      STREAM LEAKAGE     =   107691504.0000        STREAM LEAKAGE     =          11.7079
        UZF RECHARGE     =     4477574.5000          UZF RECHARGE     =           0.2551
               GW ET     =           0.0000                 GW ET     =           0.0000
     SURFACE LEAKAGE     =           0.0000       SURFACE LEAKAGE     =           0.0000
           AWU WELLS     =           0.0000             AWU WELLS     =           0.0000

                TOTAL IN =   154059696.0000                  TOTAL IN =          19.5569

          OUT:                                     OUT:
          ----                                     ----
             STORAGE     =    30231826.0000               STORAGE     =           7.1038
       CONSTANT HEAD     =           0.0000         CONSTANT HEAD     =           0.0000
     HEAD DEP BOUNDS     =     2528940.5000       HEAD DEP BOUNDS     =           0.2940
      STREAM LEAKAGE     =    89250128.0000        STREAM LEAKAGE     =          11.6573
        UZF RECHARGE     =           0.0000          UZF RECHARGE     =           0.0000
               GW ET     =      520675.0312                 GW ET     =           0.5018
     SURFACE LEAKAGE     =           0.0000       SURFACE LEAKAGE     =           0.0000
           AWU WELLS     =    31536000.0000             AWU WELLS     =           0.0000

               TOTAL OUT =   154067568.0000                 TOTAL OUT =          19.5569

                IN - OUT =       -7872.0000                  IN - OUT =       4.9591E-05

     PERCENT DISCREPANCY =          -0.01         PERCENT DISCREPANCY =           0.00






         TIME SUMMARY AT END OF TIME STEP    8 IN STRESS PERIOD    5
                    SECONDS     MINUTES      HOURS       DAYS        YEARS
                    -----------------------------------------------------------
   TIME STEP LENGTH  87600.      1460.0      24.333      1.0139     2.77588E-03
 STRESS PERIOD TIME 7.00800E+05  11680.      194.67      8.1111     2.22070E-02
         TOTAL TIME 8.67120E+06 1.44520E+05  2408.7      100.36     0.27477    
1
 
 SOLVING FOR HEAD 
                                                   Max.-Head-Change                         Max.-Flux-Residual
  Residual-Control   Outer-Iter.   Inner-Iter.     Column Row Layer    Maximum-Head-Change  Column Row Layer    Maximum-Flux-Residual          L2-NORM 
          0                 1           2             5    8     1       0.2493943074E-01       5    8    1         0.1369549119E+01      0.3130027626E+01
          0                 2           2             5    8     1      -0.2425957277E-02       5    8    1        -0.1369567451E+00      0.3118099193E+00
          0                 3           2             5    8     1       0.1651984464E-03       5    8    1         0.9586958948E-02      0.2181761327E-01
          0                 4           1             5    8     1      -0.6573401915E-05       5    8    1        -0.3921072473E-03      0.8987303697E-03

    ------------------------------------------------
       NWT REQUIRED            4 OUTER ITERATIONS 
       AND A TOTAL OF          7 INNER ITERATIONS.
    ------------------------------------------------

 OUTPUT CONTROL FOR STRESS PERIOD    5   TIME STEP    9
    PRINT BUDGET
    SAVE BUDGET
 UBDSV1 SAVING "         STORAGE" ON UNIT 102 AT TIME STEP  9, STRESS PERIOD   5
 UBDSV2 SAVING "   CONSTANT HEAD" ON UNIT 102 AT TIME STEP  9, STRESS PERIOD   5
 UBDSV1 SAVING "FLOW RIGHT FACE " ON UNIT 102 AT TIME STEP  9, STRESS PERIOD   5
 UBDSV1 SAVING "FLOW FRONT FACE " ON UNIT 102 AT TIME STEP  9, STRESS PERIOD   5

  HEAD DEP BOUNDS   PERIOD    5   STEP     9
 BOUNDARY      1   LAYER   1   ROW    13   COL     1   RATE   -0.293791    
 BOUNDARY      2   LAYER   1   ROW    14   COL     9   RATE    0.285763    



 STREAM LISTING     PERIOD      5   STEP        9

 LAYER ROW COL. STREAM  RCH.  FLOW INTO     FLOW TO   FLOW OUT OF   OVRLND.     DIRECT     STREAM       STREAM     STREAM     STREAM   STREAMBED  STREAMBED
                SEG.NO.  NO.  STRM. RCH.    AQUIFER    STRM. RCH.    RUNOFF     PRECIP       ET          HEAD       DEPTH      WIDTH   CONDCTNC.   GRADIENT

   1    1    1     1     1    2.8000E+01  2.5860E-01   2.7741E+01  0.000E+00  0.000E+00  0.000E+00  1.09427E+03  1.221E+00  1.361E+01  6.126E-02  1.407E+00
   1    2    2     1     2    2.7741E+01  4.0002E-01   2.7341E+01  0.000E+00  0.000E+00  0.000E+00  1.08928E+03  1.217E+00  1.355E+01  9.487E-02  1.406E+00
   1    3    3     1     3    2.7341E+01  3.4070E-01   2.7001E+01  0.000E+00  0.000E+00  0.000E+00  1.08363E+03  1.212E+00  1.348E+01  8.090E-02  1.404E+00
   1    3    4     1     4    2.7001E+01  3.1335E-01   2.6687E+01  0.000E+00  0.000E+00  0.000E+00  1.07861E+03  1.207E+00  1.342E+01  7.448E-02  1.402E+00
   1    4    5     2     1    2.4687E+01  3.2711E-01   2.4360E+01  0.000E+00  0.000E+00  0.000E+00  1.07313E+03  1.194E+00  1.200E+01  7.800E-02  1.398E+00
   1    5    6     2     2    2.4360E+01  2.5111E-01   2.4109E+01  0.000E+00  0.000E+00  0.000E+00  1.06769E+03  1.185E+00  1.200E+01  6.000E-02  1.395E+00
   1    6    6     2     3    2.4109E+01  2.5067E-01   2.3858E+01  0.000E+00  0.000E+00  0.000E+00  1.06297E+03  1.178E+00  1.200E+01  6.000E-02  1.393E+00
   1    7    6     2     4    2.3858E+01  2.5023E-01   2.3608E+01  0.000E+00  0.000E+00  0.000E+00  1.05825E+03  1.170E+00  1.200E+01  6.000E-02  1.390E+00
   1    8    6     2     5    2.3608E+01  2.4978E-01   2.3358E+01  0.000E+00  0.000E+00  0.000E+00  1.05352E+03  1.163E+00  1.200E+01  6.000E-02  1.388E+00
   1    3    5     3     1    2.0000E+00  2.8252E-01   1.7175E+00  0.000E+00  0.000E+00  0.000E+00  1.07555E+03  1.909E+00  9.636E+00  7.227E-02  1.955E+00
   1    3    6     3     2    1.7175E+00  2.4905E-01   1.4684E+00  0.000E+00  0.000E+00  0.000E+00  1.07264E+03  1.727E+00  8.909E+00  6.682E-02  1.864E+00
   1    3    7     3     3    1.4684E+00  1.9718E-01   1.2712E+00  0.000E+00  0.000E+00  0.000E+00  1.06987E+03  1.555E+00  8.218E+00  5.547E-02  1.777E+00
   1    4    8     3     4    1.2712E+00  2.2567E-01   1.0456E+00  0.000E+00  0.000E+00  0.000E+00  1.06682E+03  1.364E+00  7.455E+00  6.709E-02  1.682E+00
   1    5    8     3     5    1.0456E+00  1.5790E-01   8.8768E-01  0.000E+00  0.000E+00  0.000E+00  1.06362E+03  1.164E+00  6.655E+00  4.991E-02  1.582E+00
   1    6    8     3     6    8.8768E-01  5.5980E-02   8.3170E-01  0.000E+00  0.000E+00  0.000E+00  1.06158E+03  1.036E+00  6.145E+00  1.844E-02  1.518E+00
   1    5   10     4     1    1.0000E+01  9.0919E-02   9.9091E+00  0.000E+00  0.000E+00  0.000E+00  1.07836E+03  6.368E-01  1.000E+01  2.500E-02  1.212E+00
   1    5    9     4     2    9.9091E+00  1.8158E-01   9.7275E+00  0.000E+00  0.000E+00  0.000E+00  1.07154E+03  6.315E-01  1.000E+01  5.000E-02  1.211E+00
   1    6    8     4     3    9.7275E+00  1.2689E-01   9.6006E+00  0.000E+00  0.000E+00  0.000E+00  1.06381E+03  6.256E-01  1.000E+01  3.500E-02  1.209E+00
   1    6    8     5     1    1.0432E+01  2.2686E-01   1.0205E+01  0.000E+00  0.000E+00  0.000E+00  1.05868E+03  6.790E-01  1.542E+01  6.166E-02  1.226E+00
   1    7    7     5     2    1.0205E+01  2.7894E-01   9.9265E+00  0.000E+00  0.000E+00  0.000E+00  1.05417E+03  6.732E-01  1.519E+01  7.594E-02  1.224E+00
   1    8    7     5     3    9.9265E+00  1.9221E-01   9.7343E+00  0.000E+00  0.000E+00  0.000E+00  1.04992E+03  6.676E-01  1.497E+01  5.241E-02  1.223E+00
   1    8    6     5     4    9.7343E+00  1.3577E-01   9.5985E+00  0.000E+00  0.000E+00  0.000E+00  1.04691E+03  6.637E-01  1.482E+01  3.706E-02  1.221E+00
   1    9    6     6     1    3.2957E+01  2.6627E-01   3.2691E+01  0.000E+00  0.000E+00  0.000E+00  1.04417E+03  1.438E+00  1.200E+01  6.000E-02  1.479E+00
   1   10    7     6     2    3.2691E+01  2.6584E-01   3.2425E+01  0.000E+00  0.000E+00  0.000E+00  1.03961E+03  1.431E+00  1.200E+01  6.000E-02  1.477E+00
   1   11    7     6     3    3.2425E+01  2.6542E-01   3.2159E+01  0.000E+00  0.000E+00  0.000E+00  1.03506E+03  1.424E+00  1.200E+01  6.000E-02  1.475E+00
   1   12    7     6     4    3.2159E+01  2.6500E-01   3.1894E+01  0.000E+00  0.000E+00  0.000E+00  1.03051E+03  1.417E+00  1.200E+01  6.000E-02  1.472E+00
   1   13    7     6     5    3.1894E+01  4.6079E-03   3.1890E+01  0.000E+00  0.000E+00  0.000E+00  1.02732E+03  1.413E+00  1.200E+01  2.400E-02  6.400E-02
   1   14    9     7     1    1.5000E+02  1.3359E+00   1.4866E+02  0.000E+00  0.000E+00  0.000E+00  1.03987E+03  2.288E+00  5.529E+01  5.593E-01  7.962E-01
   1   13    8     7     2    1.4866E+02  1.8254E+00   1.4684E+02  0.000E+00  0.000E+00  0.000E+00  1.03478E+03  2.279E+00  5.526E+01  6.148E-01  9.897E-01
   1   13    7     7     3    1.4684E+02  1.4295E+00   1.4541E+02  0.000E+00  0.000E+00  0.000E+00  1.02969E+03  2.271E+00  5.522E+01  5.585E-01  8.533E-01
   1   13    6     8     1    1.7730E+02  8.8631E-01   1.7641E+02  0.000E+00  0.000E+00  0.000E+00  1.02487E+03  2.996E+00  4.345E+01  4.427E-01  6.673E-01
   1   13    5     8     2    1.7641E+02  1.2183E-01   1.7629E+02  0.000E+00  0.000E+00  0.000E+00  1.01862E+03  2.993E+00  4.340E+01  4.423E-01  9.182E-02
   1   13    4     8     3    1.7629E+02 -2.7306E+00   1.7902E+02  0.000E+00  0.000E+00  0.000E+00  1.01238E+03  3.001E+00  4.352E+01  4.435E+00 -2.052E-01
   1   13    3     8     4    1.7902E+02 -3.8793E+00   1.8290E+02  0.000E+00  0.000E+00  0.000E+00  1.00615E+03  3.022E+00  4.382E+01  4.466E+00 -2.896E-01
   1   13    2     8     5    1.8290E+02 -2.8110E+00   1.8571E+02  0.000E+00  0.000E+00  0.000E+00  9.99918E+02  3.043E+00  4.412E+01  4.496E+00 -2.084E-01
   1   13    1     8     6    1.8571E+02 -2.1637E+00   1.8788E+02  0.000E+00  0.000E+00  0.000E+00  9.94933E+02  3.058E+00  4.435E+01  2.711E+00 -2.660E-01
   1    8    6     9     1    0.0000E+00  0.0000E+00   0.0000E+00  0.000E+00  0.000E+00  0.000E+00  1.07875E+03  0.000E+00  4.000E+00  0.000E+00  1.000E+00
   1    8    5     9     2    0.0000E+00  0.0000E+00   0.0000E+00  0.000E+00  0.000E+00  0.000E+00  1.07825E+03  0.000E+00  4.000E+00  0.000E+00  1.000E+00



 UBDSV3 SAVING "           GW ET" ON UNIT  61 AT TIME STEP  9, STRESS PERIOD   5
 UBDSV3 SAVING "    UZF RECHARGE" ON UNIT  61 AT TIME STEP  9, STRESS PERIOD   5
 UBDSV3 SAVING " SURFACE LEAKAGE" ON UNIT  61 AT TIME STEP  9, STRESS PERIOD   5
 UBDSV3 SAVING "       HORT+DUNN" ON UNIT  61 AT TIME STEP  9, STRESS PERIOD   5
 UBDSV3 SAVING "  STORAGE CHANGE" ON UNIT  61 AT TIME STEP  9, STRESS PERIOD   5


UNSATURATED ZONE PACKAGE VOLUMETRIC BUDGET FOR  TIME STEP     9 STRESS PERIOD    5
  ------------------------------------------------------------------------------



     CUMULATIVE VOLUMES      L**3       RATES FOR THIS TIME STEP      L**3/T
     ------------------                 ------------------------

           IN:                                      IN:
           ---                                      ---
        INFILTRATION =    51236514.0000          INFILTRATION =           0.8475

          OUT:                                     OUT:
          ----                                     ----
              UZF ET =     1091160.5886                UZF ET =           1.6353
        UZF RECHARGE =     4499817.5360          UZF RECHARGE =           0.2539

            IN - OUT =    45645535.8754              IN - OUT =          -1.0417

          STORAGE:                                 STORAGE:
          --------                                 --------
      STORAGE CHANGE =    45658097.1549        STORAGE CHANGE =          -1.0417

 PERCENT DISCREPANCY IS DIFFERENCE BETWEEN IN-OUT MINUS CHANGE IN STORAGE
 DIVIDED BY THE AVERAGE OF IN AND OUT TIMES 100

 PERCENT DISCREPANCY =          -0.01     PERCENT DISCREPANCY =           0.00






 

            AWU WELLS     PERIOD    5   STEP   9
 AWU WELL      1   LAYER   1   ROW     6   COL     4   RATE     0.00000    
 AWU WELL      2   LAYER   1   ROW     6   COL     5   RATE     0.00000    
 AWU WELL      3   LAYER   1   ROW     7   COL     4   RATE     0.00000    
 AWU WELL      4   LAYER   1   ROW     7   COL     5   RATE     0.00000    
 AWU WELL      5   LAYER   1   ROW     8   COL     4   RATE     0.00000    
 AWU WELL      6   LAYER   1   ROW     8   COL     5   RATE     0.00000    
 
 

   DIVERSION SEGMENTS     PERIOD    5   STEP   9
 SEGMENT      9   RATE     0.00000    
 
 

        SW IRRIGATION     PERIOD    5   STEP   9
 SEGMENT      9   ROW     6   COL     4   RATE     0.00000    
 SEGMENT      9   ROW     6   COL     5   RATE     0.00000    
 SEGMENT      9   ROW     7   COL     4   RATE     0.00000    
 SEGMENT      9   ROW     7   COL     5   RATE     0.00000    
 SEGMENT      9   ROW     8   COL     4   RATE     0.00000    
 SEGMENT      9   ROW     8   COL     5   RATE     0.00000    
 
 

        GW IRRIGATION     PERIOD    5   STEP   9
 AWU WELL      1   ROW     6   COL     4   RATE     0.00000    
 AWU WELL      2   ROW     6   COL     5   RATE     0.00000    
 AWU WELL      3   ROW     7   COL     4   RATE     0.00000    
 AWU WELL      4   ROW     7   COL     5   RATE     0.00000    
 AWU WELL      5   ROW     8   COL     4   RATE     0.00000    
 AWU WELL      6   ROW     8   COL     5   RATE     0.00000    
 
1
  VOLUMETRIC BUDGET FOR ENTIRE MODEL AT END OF TIME STEP    9, STRESS PERIOD   5
  ------------------------------------------------------------------------------

     CUMULATIVE VOLUMES      L**3       RATES FOR THIS TIME STEP      L**3/T
     ------------------                 ------------------------

           IN:                                      IN:
           ---                                      ---
               AWU WELLS =    31536000.0000                 AWU WELLS =           0.0000
      DIVERSION SEGMENTS =    12277183.0000        DIVERSION SEGMENTS =           0.0000
           GW IRRIGATION =           0.0000             GW IRRIGATION =           0.0000
           SW IRRIGATION =           0.0000             SW IRRIGATION =           0.0000
        SYSTEM LOSSES GW =           0.0000          SYSTEM LOSSES GW =           0.0000
        SYSTEM LOSSES SW =           0.0000          SYSTEM LOSSES SW =           0.0000

                TOTAL IN =    43813184.0000                  TOTAL IN =           0.0000

          OUT:                                     OUT:
          ----                                     ----
               AWU WELLS =           0.0000                 AWU WELLS =           0.0000
      DIVERSION SEGMENTS =           0.0000        DIVERSION SEGMENTS =           0.0000
           GW IRRIGATION =    31536000.0000             GW IRRIGATION =           0.0000
           SW IRRIGATION =    12277428.0000             SW IRRIGATION =           0.0000
        SYSTEM LOSSES GW =           0.0000          SYSTEM LOSSES GW =           0.0000
        SYSTEM LOSSES SW =           0.0000          SYSTEM LOSSES SW =           0.0000

               TOTAL OUT =    43813428.0000                 TOTAL OUT =           0.0000

                IN - OUT =        -244.0000                  IN - OUT =           0.0000

     PERCENT DISCREPANCY =          -0.00         PERCENT DISCREPANCY =           0.00



1
  VOLUMETRIC BUDGET FOR ENTIRE MODEL AT END OF TIME STEP    9, STRESS PERIOD   5
  ------------------------------------------------------------------------------

     CUMULATIVE VOLUMES      L**3       RATES FOR THIS TIME STEP      L**3/T
     ------------------                 ------------------------

           IN:                                      IN:
           ---                                      ---
             STORAGE     =    40026228.0000               STORAGE     =           7.0033
       CONSTANT HEAD     =           0.0000         CONSTANT HEAD     =           0.0000
     HEAD DEP BOUNDS     =     2502912.5000       HEAD DEP BOUNDS     =           0.2858
      STREAM LEAKAGE     =   108717224.0000        STREAM LEAKAGE     =          11.7091
        UZF RECHARGE     =     4499816.5000          UZF RECHARGE     =           0.2539
               GW ET     =           0.0000                 GW ET     =           0.0000
     SURFACE LEAKAGE     =           0.0000       SURFACE LEAKAGE     =           0.0000
           AWU WELLS     =           0.0000             AWU WELLS     =           0.0000

                TOTAL IN =   155746192.0000                  TOTAL IN =          19.2521

          OUT:                                     OUT:
          ----                                     ----
             STORAGE     =    30833870.0000               STORAGE     =           6.8726
       CONSTANT HEAD     =           0.0000         CONSTANT HEAD     =           0.0000
     HEAD DEP BOUNDS     =     2554676.5000       HEAD DEP BOUNDS     =           0.2938
      STREAM LEAKAGE     =    90264936.0000        STREAM LEAKAGE     =          11.5846
        UZF RECHARGE     =           0.0000          UZF RECHARGE     =           0.0000
               GW ET     =      564565.1250                 GW ET     =           0.5010
     SURFACE LEAKAGE     =           0.0000       SURFACE LEAKAGE     =           0.0000
           AWU WELLS     =    31536000.0000             AWU WELLS     =           0.0000

               TOTAL OUT =   155754048.0000                 TOTAL OUT =          19.2520

                IN - OUT =       -7856.0000                  IN - OUT =       4.7684E-05

     PERCENT DISCREPANCY =          -0.01         PERCENT DISCREPANCY =           0.00






         TIME SUMMARY AT END OF TIME STEP    9 IN STRESS PERIOD    5
                    SECONDS     MINUTES      HOURS       DAYS        YEARS
                    -----------------------------------------------------------
   TIME STEP LENGTH  87600.      1460.0      24.333      1.0139     2.77588E-03
 STRESS PERIOD TIME 7.88400E+05  13140.      219.00      9.1250     2.49829E-02
         TOTAL TIME 8.75880E+06 1.45980E+05  2433.0      101.38     0.27755    
1
 
 SOLVING FOR HEAD 
                                                   Max.-Head-Change                         Max.-Flux-Residual
  Residual-Control   Outer-Iter.   Inner-Iter.     Column Row Layer    Maximum-Head-Change  Column Row Layer    Maximum-Flux-Residual          L2-NORM 
          0                 1           2             5    8     1       0.2363918701E-01       5    8    1         0.1297018889E+01      0.2989216001E+01
          0                 2           2             5    8     1      -0.2299473478E-02       5    8    1        -0.1297035081E+00      0.2977629085E+00
          0                 3           2             5    8     1       0.1565853981E-03       5    8    1         0.9079234177E-02      0.2083695134E-01
          0                 4           1             5    8     1      -0.6230680864E-05       5    8    1        -0.3713412634E-03      0.8586972410E-03

    ------------------------------------------------
       NWT REQUIRED            4 OUTER ITERATIONS 
       AND A TOTAL OF          7 INNER ITERATIONS.
    ------------------------------------------------

 OUTPUT CONTROL FOR STRESS PERIOD    5   TIME STEP   10
    PRINT BUDGET
    SAVE BUDGET
 UBDSV1 SAVING "         STORAGE" ON UNIT 102 AT TIME STEP 10, STRESS PERIOD   5
 UBDSV2 SAVING "   CONSTANT HEAD" ON UNIT 102 AT TIME STEP 10, STRESS PERIOD   5
 UBDSV1 SAVING "FLOW RIGHT FACE " ON UNIT 102 AT TIME STEP 10, STRESS PERIOD   5
 UBDSV1 SAVING "FLOW FRONT FACE " ON UNIT 102 AT TIME STEP 10, STRESS PERIOD   5

  HEAD DEP BOUNDS   PERIOD    5   STEP    10
 BOUNDARY      1   LAYER   1   ROW    13   COL     1   RATE   -0.293597    
 BOUNDARY      2   LAYER   1   ROW    14   COL     9   RATE    0.285762    



 STREAM LISTING     PERIOD      5   STEP       10

 LAYER ROW COL. STREAM  RCH.  FLOW INTO     FLOW TO   FLOW OUT OF   OVRLND.     DIRECT     STREAM       STREAM     STREAM     STREAM   STREAMBED  STREAMBED
                SEG.NO.  NO.  STRM. RCH.    AQUIFER    STRM. RCH.    RUNOFF     PRECIP       ET          HEAD       DEPTH      WIDTH   CONDCTNC.   GRADIENT

   1    1    1     1     1    2.8000E+01  2.5860E-01   2.7741E+01  0.000E+00  0.000E+00  0.000E+00  1.09427E+03  1.221E+00  1.361E+01  6.126E-02  1.407E+00
   1    2    2     1     2    2.7741E+01  4.0002E-01   2.7341E+01  0.000E+00  0.000E+00  0.000E+00  1.08928E+03  1.217E+00  1.355E+01  9.487E-02  1.406E+00
   1    3    3     1     3    2.7341E+01  3.4070E-01   2.7001E+01  0.000E+00  0.000E+00  0.000E+00  1.08363E+03  1.212E+00  1.348E+01  8.090E-02  1.404E+00
   1    3    4     1     4    2.7001E+01  3.1335E-01   2.6687E+01  0.000E+00  0.000E+00  0.000E+00  1.07861E+03  1.207E+00  1.342E+01  7.448E-02  1.402E+00
   1    4    5     2     1    2.4687E+01  3.2711E-01   2.4360E+01  0.000E+00  0.000E+00  0.000E+00  1.07313E+03  1.194E+00  1.200E+01  7.800E-02  1.398E+00
   1    5    6     2     2    2.4360E+01  2.5111E-01   2.4109E+01  0.000E+00  0.000E+00  0.000E+00  1.06769E+03  1.185E+00  1.200E+01  6.000E-02  1.395E+00
   1    6    6     2     3    2.4109E+01  2.5067E-01   2.3858E+01  0.000E+00  0.000E+00  0.000E+00  1.06297E+03  1.178E+00  1.200E+01  6.000E-02  1.393E+00
   1    7    6     2     4    2.3858E+01  2.5023E-01   2.3608E+01  0.000E+00  0.000E+00  0.000E+00  1.05825E+03  1.170E+00  1.200E+01  6.000E-02  1.390E+00
   1    8    6     2     5    2.3608E+01  2.4978E-01   2.3358E+01  0.000E+00  0.000E+00  0.000E+00  1.05352E+03  1.163E+00  1.200E+01  6.000E-02  1.388E+00
   1    3    5     3     1    2.0000E+00  2.8252E-01   1.7175E+00  0.000E+00  0.000E+00  0.000E+00  1.07555E+03  1.909E+00  9.636E+00  7.227E-02  1.955E+00
   1    3    6     3     2    1.7175E+00  2.4905E-01   1.4684E+00  0.000E+00  0.000E+00  0.000E+00  1.07264E+03  1.727E+00  8.909E+00  6.682E-02  1.864E+00
   1    3    7     3     3    1.4684E+00  1.9718E-01   1.2712E+00  0.000E+00  0.000E+00  0.000E+00  1.06987E+03  1.555E+00  8.218E+00  5.547E-02  1.777E+00
   1    4    8     3     4    1.2712E+00  2.2567E-01   1.0456E+00  0.000E+00  0.000E+00  0.000E+00  1.06682E+03  1.364E+00  7.455E+00  6.709E-02  1.682E+00
   1    5    8     3     5    1.0456E+00  1.5790E-01   8.8768E-01  0.000E+00  0.000E+00  0.000E+00  1.06362E+03  1.164E+00  6.655E+00  4.991E-02  1.582E+00
   1    6    8     3     6    8.8768E-01  5.5980E-02   8.3170E-01  0.000E+00  0.000E+00  0.000E+00  1.06158E+03  1.036E+00  6.145E+00  1.844E-02  1.518E+00
   1    5   10     4     1    1.0000E+01  9.0919E-02   9.9091E+00  0.000E+00  0.000E+00  0.000E+00  1.07836E+03  6.368E-01  1.000E+01  2.500E-02  1.212E+00
   1    5    9     4     2    9.9091E+00  1.8158E-01   9.7275E+00  0.000E+00  0.000E+00  0.000E+00  1.07154E+03  6.315E-01  1.000E+01  5.000E-02  1.211E+00
   1    6    8     4     3    9.7275E+00  1.2689E-01   9.6006E+00  0.000E+00  0.000E+00  0.000E+00  1.06381E+03  6.256E-01  1.000E+01  3.500E-02  1.209E+00
   1    6    8     5     1    1.0432E+01  2.2686E-01   1.0205E+01  0.000E+00  0.000E+00  0.000E+00  1.05868E+03  6.790E-01  1.542E+01  6.166E-02  1.226E+00
   1    7    7     5     2    1.0205E+01  2.7894E-01   9.9265E+00  0.000E+00  0.000E+00  0.000E+00  1.05417E+03  6.732E-01  1.519E+01  7.594E-02  1.224E+00
   1    8    7     5     3    9.9265E+00  1.9221E-01   9.7343E+00  0.000E+00  0.000E+00  0.000E+00  1.04992E+03  6.676E-01  1.497E+01  5.241E-02  1.223E+00
   1    8    6     5     4    9.7343E+00  1.3577E-01   9.5985E+00  0.000E+00  0.000E+00  0.000E+00  1.04691E+03  6.637E-01  1.482E+01  3.706E-02  1.221E+00
   1    9    6     6     1    3.2957E+01  2.6627E-01   3.2691E+01  0.000E+00  0.000E+00  0.000E+00  1.04417E+03  1.438E+00  1.200E+01  6.000E-02  1.479E+00
   1   10    7     6     2    3.2691E+01  2.6584E-01   3.2425E+01  0.000E+00  0.000E+00  0.000E+00  1.03961E+03  1.431E+00  1.200E+01  6.000E-02  1.477E+00
   1   11    7     6     3    3.2425E+01  2.6542E-01   3.2159E+01  0.000E+00  0.000E+00  0.000E+00  1.03506E+03  1.424E+00  1.200E+01  6.000E-02  1.475E+00
   1   12    7     6     4    3.2159E+01  2.6500E-01   3.1894E+01  0.000E+00  0.000E+00  0.000E+00  1.03051E+03  1.417E+00  1.200E+01  6.000E-02  1.472E+00
   1   13    7     6     5    3.1894E+01  4.5958E-03   3.1890E+01  0.000E+00  0.000E+00  0.000E+00  1.02732E+03  1.413E+00  1.200E+01  2.400E-02  6.383E-02
   1   14    9     7     1    1.5000E+02  1.3359E+00   1.4866E+02  0.000E+00  0.000E+00  0.000E+00  1.03987E+03  2.288E+00  5.529E+01  5.593E-01  7.962E-01
   1   13    8     7     2    1.4866E+02  1.8252E+00   1.4684E+02  0.000E+00  0.000E+00  0.000E+00  1.03478E+03  2.279E+00  5.526E+01  6.148E-01  9.896E-01
   1   13    7     7     3    1.4684E+02  1.4292E+00   1.4541E+02  0.000E+00  0.000E+00  0.000E+00  1.02969E+03  2.271E+00  5.522E+01  5.585E-01  8.531E-01
   1   13    6     8     1    1.7730E+02  8.8688E-01   1.7641E+02  0.000E+00  0.000E+00  0.000E+00  1.02487E+03  2.996E+00  4.345E+01  4.427E-01  6.677E-01
   1   13    5     8     2    1.7641E+02  1.2285E-01   1.7629E+02  0.000E+00  0.000E+00  0.000E+00  1.01862E+03  2.993E+00  4.340E+01  4.423E-01  9.259E-02
   1   13    4     8     3    1.7629E+02 -2.7148E+00   1.7900E+02  0.000E+00  0.000E+00  0.000E+00  1.01238E+03  3.001E+00  4.352E+01  4.435E+00 -2.041E-01
   1   13    3     8     4    1.7900E+02 -3.8608E+00   1.8287E+02  0.000E+00  0.000E+00  0.000E+00  1.00615E+03  3.022E+00  4.382E+01  4.465E+00 -2.882E-01
   1   13    2     8     5    1.8287E+02 -2.7910E+00   1.8566E+02  0.000E+00  0.000E+00  0.000E+00  9.99918E+02  3.043E+00  4.412E+01  4.496E+00 -2.069E-01
   1   13    1     8     6    1.8566E+02 -2.1506E+00   1.8781E+02  0.000E+00  0.000E+00  0.000E+00  9.94933E+02  3.058E+00  4.434E+01  2.711E+00 -2.644E-01
   1    8    6     9     1    0.0000E+00  0.0000E+00   0.0000E+00  0.000E+00  0.000E+00  0.000E+00  1.07875E+03  0.000E+00  4.000E+00  0.000E+00  1.000E+00
   1    8    5     9     2    0.0000E+00  0.0000E+00   0.0000E+00  0.000E+00  0.000E+00  0.000E+00  1.07825E+03  0.000E+00  4.000E+00  0.000E+00  1.000E+00



 UBDSV3 SAVING "           GW ET" ON UNIT  61 AT TIME STEP 10, STRESS PERIOD   5
 UBDSV3 SAVING "    UZF RECHARGE" ON UNIT  61 AT TIME STEP 10, STRESS PERIOD   5
 UBDSV3 SAVING " SURFACE LEAKAGE" ON UNIT  61 AT TIME STEP 10, STRESS PERIOD   5
 UBDSV3 SAVING "       HORT+DUNN" ON UNIT  61 AT TIME STEP 10, STRESS PERIOD   5
 UBDSV3 SAVING "  STORAGE CHANGE" ON UNIT  61 AT TIME STEP 10, STRESS PERIOD   5


UNSATURATED ZONE PACKAGE VOLUMETRIC BUDGET FOR  TIME STEP    10 STRESS PERIOD    5
  ------------------------------------------------------------------------------



     CUMULATIVE VOLUMES      L**3       RATES FOR THIS TIME STEP      L**3/T
     ------------------                 ------------------------

           IN:                                      IN:
           ---                                      ---
        INFILTRATION =    51310755.0000          INFILTRATION =           0.8475

          OUT:                                     OUT:
          ----                                     ----
              UZF ET =     1232223.2227                UZF ET =           1.6103
        UZF RECHARGE =     4521630.9582          UZF RECHARGE =           0.2490

            IN - OUT =    45556900.8190              IN - OUT =          -1.0118

          STORAGE:                                 STORAGE:
          --------                                 --------
      STORAGE CHANGE =    45569462.1010        STORAGE CHANGE =          -1.0118

 PERCENT DISCREPANCY IS DIFFERENCE BETWEEN IN-OUT MINUS CHANGE IN STORAGE
 DIVIDED BY THE AVERAGE OF IN AND OUT TIMES 100

 PERCENT DISCREPANCY =          -0.01     PERCENT DISCREPANCY =          -0.00






 

            AWU WELLS     PERIOD    5   STEP  10
 AWU WELL      1   LAYER   1   ROW     6   COL     4   RATE     0.00000    
 AWU WELL      2   LAYER   1   ROW     6   COL     5   RATE     0.00000    
 AWU WELL      3   LAYER   1   ROW     7   COL     4   RATE     0.00000    
 AWU WELL      4   LAYER   1   ROW     7   COL     5   RATE     0.00000    
 AWU WELL      5   LAYER   1   ROW     8   COL     4   RATE     0.00000    
 AWU WELL      6   LAYER   1   ROW     8   COL     5   RATE     0.00000    
 
 

   DIVERSION SEGMENTS     PERIOD    5   STEP  10
 SEGMENT      9   RATE     0.00000    
 
 

        SW IRRIGATION     PERIOD    5   STEP  10
 SEGMENT      9   ROW     6   COL     4   RATE     0.00000    
 SEGMENT      9   ROW     6   COL     5   RATE     0.00000    
 SEGMENT      9   ROW     7   COL     4   RATE     0.00000    
 SEGMENT      9   ROW     7   COL     5   RATE     0.00000    
 SEGMENT      9   ROW     8   COL     4   RATE     0.00000    
 SEGMENT      9   ROW     8   COL     5   RATE     0.00000    
 
 

        GW IRRIGATION     PERIOD    5   STEP  10
 AWU WELL      1   ROW     6   COL     4   RATE     0.00000    
 AWU WELL      2   ROW     6   COL     5   RATE     0.00000    
 AWU WELL      3   ROW     7   COL     4   RATE     0.00000    
 AWU WELL      4   ROW     7   COL     5   RATE     0.00000    
 AWU WELL      5   ROW     8   COL     4   RATE     0.00000    
 AWU WELL      6   ROW     8   COL     5   RATE     0.00000    
 
1
  VOLUMETRIC BUDGET FOR ENTIRE MODEL AT END OF TIME STEP   10, STRESS PERIOD   5
  ------------------------------------------------------------------------------

     CUMULATIVE VOLUMES      L**3       RATES FOR THIS TIME STEP      L**3/T
     ------------------                 ------------------------

           IN:                                      IN:
           ---                                      ---
               AWU WELLS =    31536000.0000                 AWU WELLS =           0.0000
      DIVERSION SEGMENTS =    12277183.0000        DIVERSION SEGMENTS =           0.0000
           GW IRRIGATION =           0.0000             GW IRRIGATION =           0.0000
           SW IRRIGATION =           0.0000             SW IRRIGATION =           0.0000
        SYSTEM LOSSES GW =           0.0000          SYSTEM LOSSES GW =           0.0000
        SYSTEM LOSSES SW =           0.0000          SYSTEM LOSSES SW =           0.0000

                TOTAL IN =    43813184.0000                  TOTAL IN =           0.0000

          OUT:                                     OUT:
          ----                                     ----
               AWU WELLS =           0.0000                 AWU WELLS =           0.0000
      DIVERSION SEGMENTS =           0.0000        DIVERSION SEGMENTS =           0.0000
           GW IRRIGATION =    31536000.0000             GW IRRIGATION =           0.0000
           SW IRRIGATION =    12277428.0000             SW IRRIGATION =           0.0000
        SYSTEM LOSSES GW =           0.0000          SYSTEM LOSSES GW =           0.0000
        SYSTEM LOSSES SW =           0.0000          SYSTEM LOSSES SW =           0.0000

               TOTAL OUT =    43813428.0000                 TOTAL OUT =           0.0000

                IN - OUT =        -244.0000                  IN - OUT =           0.0000

     PERCENT DISCREPANCY =          -0.00         PERCENT DISCREPANCY =           0.00



1
  VOLUMETRIC BUDGET FOR ENTIRE MODEL AT END OF TIME STEP   10, STRESS PERIOD   5
  ------------------------------------------------------------------------------

     CUMULATIVE VOLUMES      L**3       RATES FOR THIS TIME STEP      L**3/T
     ------------------                 ------------------------

           IN:                                      IN:
           ---                                      ---
             STORAGE     =    40614400.0000               STORAGE     =           6.7143
       CONSTANT HEAD     =           0.0000         CONSTANT HEAD     =           0.0000
     HEAD DEP BOUNDS     =     2527945.2500       HEAD DEP BOUNDS     =           0.2858
      STREAM LEAKAGE     =   109743040.0000        STREAM LEAKAGE     =          11.7103
        UZF RECHARGE     =     4521630.0000          UZF RECHARGE     =           0.2490
               GW ET     =           0.0000                 GW ET     =           0.0000
     SURFACE LEAKAGE     =           0.0000       SURFACE LEAKAGE     =           0.0000
           AWU WELLS     =           0.0000             AWU WELLS     =           0.0000

                TOTAL IN =   157407008.0000                  TOTAL IN =          18.9593

          OUT:                                     OUT:
          ----                                     ----
             STORAGE     =    31416182.0000               STORAGE     =           6.6474
       CONSTANT HEAD     =           0.0000         CONSTANT HEAD     =           0.0000
     HEAD DEP BOUNDS     =     2580395.5000       HEAD DEP BOUNDS     =           0.2936
      STREAM LEAKAGE     =    91273840.0000        STREAM LEAKAGE     =          11.5172
        UZF RECHARGE     =           0.0000          UZF RECHARGE     =           0.0000
               GW ET     =      608464.5000                 GW ET     =           0.5011
     SURFACE LEAKAGE     =           0.0000       SURFACE LEAKAGE     =           0.0000
           AWU WELLS     =    31536000.0000             AWU WELLS     =           0.0000

               TOTAL OUT =   157414880.0000                 TOTAL OUT =          18.9593

                IN - OUT =       -7872.0000                  IN - OUT =       4.7684E-05

     PERCENT DISCREPANCY =          -0.01         PERCENT DISCREPANCY =           0.00






         TIME SUMMARY AT END OF TIME STEP   10 IN STRESS PERIOD    5
                    SECONDS     MINUTES      HOURS       DAYS        YEARS
                    -----------------------------------------------------------
   TIME STEP LENGTH  87600.      1460.0      24.333      1.0139     2.77588E-03
 STRESS PERIOD TIME 8.76000E+05  14600.      243.33      10.139     2.77588E-02
         TOTAL TIME 8.84640E+06 1.47440E+05  2457.3      102.39     0.28033    
1
 
 SOLVING FOR HEAD 
                                                   Max.-Head-Change                         Max.-Flux-Residual
  Residual-Control   Outer-Iter.   Inner-Iter.     Column Row Layer    Maximum-Head-Change  Column Row Layer    Maximum-Flux-Residual          L2-NORM 
          0                 1           2             5    8     1       0.2242604964E-01       5    8    1         0.1229392978E+01      0.2857986461E+01
          0                 2           2             5    8     1      -0.2181463031E-02       5    8    1        -0.1229407294E+00      0.2846487722E+00
          0                 3           2             5    8     1       0.1485493503E-03       5    8    1         0.8605841247E-02      0.1992132643E-01
          0                 4           1             5    8     1      -0.5910918559E-05       5    8    1        -0.3519794623E-03      0.8215059834E-03

    ------------------------------------------------
       NWT REQUIRED            4 OUTER ITERATIONS 
       AND A TOTAL OF          7 INNER ITERATIONS.
    ------------------------------------------------

 NO OUTPUT CONTROL FOR STRESS PERIOD    5   TIME STEP   11
 
 SOLVING FOR HEAD 
                                                   Max.-Head-Change                         Max.-Flux-Residual
  Residual-Control   Outer-Iter.   Inner-Iter.     Column Row Layer    Maximum-Head-Change  Column Row Layer    Maximum-Flux-Residual          L2-NORM 
          0                 1           2             5    8     1       0.2129353224E-01       5    8    1         0.1166302703E+01      0.2735195409E+01
          0                 2           2             5    8     1      -0.2071297713E-02       5    8    1        -0.1166315372E+00      0.2723675703E+00
          0                 3           2             5    8     1       0.1410475228E-03       5    8    1         0.8164199166E-02      0.1906365537E-01
          0                 4           1             5    8     1      -0.5612413415E-05       5    8    1        -0.3339162597E-03      0.7865688630E-03

    ------------------------------------------------
       NWT REQUIRED            4 OUTER ITERATIONS 
       AND A TOTAL OF          7 INNER ITERATIONS.
    ------------------------------------------------

 NO OUTPUT CONTROL FOR STRESS PERIOD    5   TIME STEP   12
 
 SOLVING FOR HEAD 
                                                   Max.-Head-Change                         Max.-Flux-Residual
  Residual-Control   Outer-Iter.   Inner-Iter.     Column Row Layer    Maximum-Head-Change  Column Row Layer    Maximum-Flux-Residual          L2-NORM 
          0                 1           2             5    6     1       0.2025341832E-01       5    8    1         0.1107395520E+01      0.2892700435E+01
          0                 2           2             4   13     1       0.9594552136E-02       4   13    1         0.5663252516E+00      0.1031911187E+01
          0                 3           2             7   13     1      -0.8412670442E-03       7   13    1        -0.4666989040E-01      0.8241229001E-01
          0                 4           1             7   13     1       0.5727387217E-04       7   13    1         0.3268511315E-02      0.4178107423E-02

    ------------------------------------------------
       NWT REQUIRED            4 OUTER ITERATIONS 
       AND A TOTAL OF          7 INNER ITERATIONS.
    ------------------------------------------------

 NO OUTPUT CONTROL FOR STRESS PERIOD    5   TIME STEP   13
 
 SOLVING FOR HEAD 
                                                   Max.-Head-Change                         Max.-Flux-Residual
  Residual-Control   Outer-Iter.   Inner-Iter.     Column Row Layer    Maximum-Head-Change  Column Row Layer    Maximum-Flux-Residual          L2-NORM 
          0                 1           2             5    6     1       0.1930111488E-01       5    6    1         0.1053430717E+01      0.2786778161E+01
          0                 2           2             4   13     1       0.9581139333E-02       4   13    1         0.5655374941E+00      0.1027801349E+01
          0                 3           2             7   13     1      -0.8397400506E-03       7   13    1        -0.4658530158E-01      0.8211176355E-01
          0                 4           1             7   13     1       0.5716988622E-04       7   13    1         0.3262570526E-02      0.4162755064E-02

    ------------------------------------------------
       NWT REQUIRED            4 OUTER ITERATIONS 
       AND A TOTAL OF          7 INNER ITERATIONS.
    ------------------------------------------------

 NO OUTPUT CONTROL FOR STRESS PERIOD    5   TIME STEP   14
 
 SOLVING FOR HEAD 
                                                   Max.-Head-Change                         Max.-Flux-Residual
  Residual-Control   Outer-Iter.   Inner-Iter.     Column Row Layer    Maximum-Head-Change  Column Row Layer    Maximum-Flux-Residual          L2-NORM 
          0                 1           2             5    6     1       0.1840762555E-01       5    6    1         0.1003900768E+01      0.2687682985E+01
          0                 2           2             4   13     1       0.9568222196E-02       4   13    1         0.5647791165E+00      0.1023879922E+01
          0                 3           2             7   13     1      -0.8382853829E-03       7   13    1        -0.4650469835E-01      0.8177544612E-01
          0                 4           1             7   13     1       0.5707114045E-04       7   13    1         0.3256932499E-02      0.4152006375E-02

    ------------------------------------------------
       NWT REQUIRED            4 OUTER ITERATIONS 
       AND A TOTAL OF          7 INNER ITERATIONS.
    ------------------------------------------------

 NO OUTPUT CONTROL FOR STRESS PERIOD    5   TIME STEP   15
 
 SOLVING FOR HEAD 
                                                   Max.-Head-Change                         Max.-Flux-Residual
  Residual-Control   Outer-Iter.   Inner-Iter.     Column Row Layer    Maximum-Head-Change  Column Row Layer    Maximum-Flux-Residual          L2-NORM 
          0                 1           2             5    6     1       0.1756867616E-01       5    6    1         0.9574226018E+00      0.2594977690E+01
          0                 2           2             4   13     1       0.9556530925E-02       4   13    1         0.5640932022E+00      0.1020373359E+01
          0                 3           2             7   13     1      -0.8368994162E-03       7   13    1        -0.4642787284E-01      0.8152194156E-01
          0                 4           1             7   13     1       0.5697630168E-04       7   13    1         0.3251513223E-02      0.4139132809E-02

    ------------------------------------------------
       NWT REQUIRED            4 OUTER ITERATIONS 
       AND A TOTAL OF          7 INNER ITERATIONS.
    ------------------------------------------------

 NO OUTPUT CONTROL FOR STRESS PERIOD    5   TIME STEP   16
 
 SOLVING FOR HEAD 
                                                   Max.-Head-Change                         Max.-Flux-Residual
  Residual-Control   Outer-Iter.   Inner-Iter.     Column Row Layer    Maximum-Head-Change  Column Row Layer    Maximum-Flux-Residual          L2-NORM 
          0                 1           2             5    6     1       0.1678064191E-01       5    6    1         0.9137910360E+00      0.2508183851E+01
          0                 2           2             4   13     1       0.9545973273E-02       4   13    1         0.5634742758E+00      0.1017174413E+01
          0                 3           2             7   13     1      -0.8355766167E-03       7   13    1        -0.4635452652E-01      0.8129132396E-01
          0                 4           1             7   13     1       0.5688792646E-04       7   13    1         0.3246469573E-02      0.4129039434E-02

    ------------------------------------------------
       NWT REQUIRED            4 OUTER ITERATIONS 
       AND A TOTAL OF          7 INNER ITERATIONS.
    ------------------------------------------------

 NO OUTPUT CONTROL FOR STRESS PERIOD    5   TIME STEP   17
 
 SOLVING FOR HEAD 
                                                   Max.-Head-Change                         Max.-Flux-Residual
  Residual-Control   Outer-Iter.   Inner-Iter.     Column Row Layer    Maximum-Head-Change  Column Row Layer    Maximum-Flux-Residual          L2-NORM 
          0                 1           2             5    6     1       0.1603987513E-01       5    6    1         0.8728013892E+00      0.2426849907E+01
          0                 2           2             4   13     1       0.9536415384E-02       4   13    1         0.5629143701E+00      0.1014245763E+01
          0                 3           2             7   13     1      -0.8343195950E-03       7   13    1        -0.4628480614E-01      0.8107859729E-01
          0                 4           1             7   13     1       0.5680131730E-04       7   13    1         0.3241516799E-02      0.4121239891E-02

    ------------------------------------------------
       NWT REQUIRED            4 OUTER ITERATIONS 
       AND A TOTAL OF          7 INNER ITERATIONS.
    ------------------------------------------------

 NO OUTPUT CONTROL FOR STRESS PERIOD    5   TIME STEP   18
 
 SOLVING FOR HEAD 
                                                   Max.-Head-Change                         Max.-Flux-Residual
  Residual-Control   Outer-Iter.   Inner-Iter.     Column Row Layer    Maximum-Head-Change  Column Row Layer    Maximum-Flux-Residual          L2-NORM 
          0                 1           2             5    6     1       0.1534302463E-01       5    6    1         0.8342643870E+00      0.2350582928E+01
          0                 2           2             4   13     1       0.9527769606E-02       4   13    1         0.5624083153E+00      0.1011559297E+01
          0                 3           2             7   13     1      -0.7280545197E-03       7   13    1        -0.4151103568E-01      0.7828855073E-01
          0                 4           1             4   13     1       0.2417583430E-04       4   13    1         0.1508858853E-02      0.2810262439E-02

    ------------------------------------------------
       NWT REQUIRED            4 OUTER ITERATIONS 
       AND A TOTAL OF          7 INNER ITERATIONS.
    ------------------------------------------------

 NO OUTPUT CONTROL FOR STRESS PERIOD    5   TIME STEP   19
 
 SOLVING FOR HEAD 
                                                   Max.-Head-Change                         Max.-Flux-Residual
  Residual-Control   Outer-Iter.   Inner-Iter.     Column Row Layer    Maximum-Head-Change  Column Row Layer    Maximum-Flux-Residual          L2-NORM 
          0                 1           2             5    6     1       0.1468729140E-01       5    6    1         0.7980227291E+00      0.2279039920E+01
          0                 2           2             4   13     1       0.9519949221E-02       4   13    1         0.5619509414E+00      0.1009085443E+01
          0                 3           2             7   13     1      -0.6695250598E-03       7   13    1        -0.3816817280E-01      0.7641580909E-01
          0                 4           1             7   13     1      -0.3953374894E-04       7   13    1        -0.2261108839E-02      0.3395189857E-02

    ------------------------------------------------
       NWT REQUIRED            4 OUTER ITERATIONS 
       AND A TOTAL OF          7 INNER ITERATIONS.
    ------------------------------------------------

 NO OUTPUT CONTROL FOR STRESS PERIOD    5   TIME STEP   20
 
 SOLVING FOR HEAD 
                                                   Max.-Head-Change                         Max.-Flux-Residual
  Residual-Control   Outer-Iter.   Inner-Iter.     Column Row Layer    Maximum-Head-Change  Column Row Layer    Maximum-Flux-Residual          L2-NORM 
          0                 1           2             5    6     1       0.1407009762E-01       5    6    1         0.7639311871E+00      0.1922224806E+01
          0                 2           2             5    6     1      -0.1368633725E-02       5    6    1        -0.7639288748E-01      0.1908924196E+00
          0                 3           1             5    6     1       0.9319870784E-04       5    6    1         0.5347506611E-02      0.1337247243E-01

    ------------------------------------------------
       NWT REQUIRED            3 OUTER ITERATIONS 
       AND A TOTAL OF          5 INNER ITERATIONS.
    ------------------------------------------------

 NO OUTPUT CONTROL FOR STRESS PERIOD    5   TIME STEP   21
 
 SOLVING FOR HEAD 
                                                   Max.-Head-Change                         Max.-Flux-Residual
  Residual-Control   Outer-Iter.   Inner-Iter.     Column Row Layer    Maximum-Head-Change  Column Row Layer    Maximum-Flux-Residual          L2-NORM 
          0                 1           2             5    6     1       0.1348798972E-01       5    6    1         0.7317963922E+00      0.1856470859E+01
          0                 2           2             5    6     1      -0.1312010773E-02       5    6    1        -0.7317942613E-01      0.1842849914E+00
          0                 3           1             5    6     1       0.8934289648E-04       5    6    1         0.5122564064E-02      0.1291082273E-01

    ------------------------------------------------
       NWT REQUIRED            3 OUTER ITERATIONS 
       AND A TOTAL OF          5 INNER ITERATIONS.
    ------------------------------------------------

 NO OUTPUT CONTROL FOR STRESS PERIOD    5   TIME STEP   22
 
 SOLVING FOR HEAD 
                                                   Max.-Head-Change                         Max.-Flux-Residual
  Residual-Control   Outer-Iter.   Inner-Iter.     Column Row Layer    Maximum-Head-Change  Column Row Layer    Maximum-Flux-Residual          L2-NORM 
          0                 1           2             5    6     1       0.1293963318E-01       5    6    1         0.7015423285E+00      0.1794428511E+01
          0                 2           2             5    6     1      -0.1258670857E-02       5    6    1        -0.7015403640E-01      0.1780478408E+00
          0                 3           1             5    6     1       0.8571064811E-04       5    6    1         0.4910786543E-02      0.1247477843E-01

    ------------------------------------------------
       NWT REQUIRED            3 OUTER ITERATIONS 
       AND A TOTAL OF          5 INNER ITERATIONS.
    ------------------------------------------------

 NO OUTPUT CONTROL FOR STRESS PERIOD    5   TIME STEP   23
 
 SOLVING FOR HEAD 
                                                   Max.-Head-Change                         Max.-Flux-Residual
  Residual-Control   Outer-Iter.   Inner-Iter.     Column Row Layer    Maximum-Head-Change  Column Row Layer    Maximum-Flux-Residual          L2-NORM 
          0                 1           2             5    6     1       0.1242212914E-01       5    6    1         0.6730063468E+00      0.1735808358E+01
          0                 2           2             5    6     1      -0.1208332002E-02       5    6    1        -0.6730045347E-01      0.1721548429E+00
          0                 3           1             5    6     1       0.8228276048E-04       5    6    1         0.4711035482E-02      0.1206298109E-01

    ------------------------------------------------
       NWT REQUIRED            3 OUTER ITERATIONS 
       AND A TOTAL OF          5 INNER ITERATIONS.
    ------------------------------------------------

 NO OUTPUT CONTROL FOR STRESS PERIOD    5   TIME STEP   24
 
 SOLVING FOR HEAD 
                                                   Max.-Head-Change                         Max.-Flux-Residual
  Residual-Control   Outer-Iter.   Inner-Iter.     Column Row Layer    Maximum-Head-Change  Column Row Layer    Maximum-Flux-Residual          L2-NORM 
          0                 1           2             5    6     1       0.1193397242E-01       5    6    1         0.6461044226E+00      0.1680393427E+01
          0                 2           2             5    6     1      -0.1160847793E-02       5    6    1        -0.6461027502E-01      0.1665869455E+00
          0                 3           1             5    6     1       0.7904926611E-04       5    6    1         0.4522722793E-02      0.1167391040E-01

    ------------------------------------------------
       NWT REQUIRED            3 OUTER ITERATIONS 
       AND A TOTAL OF          5 INNER ITERATIONS.
    ------------------------------------------------

 NO OUTPUT CONTROL FOR STRESS PERIOD    5   TIME STEP   25
 
 SOLVING FOR HEAD 
                                                   Max.-Head-Change                         Max.-Flux-Residual
  Residual-Control   Outer-Iter.   Inner-Iter.     Column Row Layer    Maximum-Head-Change  Column Row Layer    Maximum-Flux-Residual          L2-NORM 
          0                 1           2             5    6     1       0.1147288219E-01       5    6    1         0.6207086630E+00      0.1627933168E+01
          0                 2           2             5    6     1      -0.1115996458E-02       5    6    1        -0.6207071189E-01      0.1613081028E+00
          0                 3           1             5    6     1       0.7599505907E-04       5    6    1         0.4344953179E-02      0.1130483668E-01

    ------------------------------------------------
       NWT REQUIRED            3 OUTER ITERATIONS 
       AND A TOTAL OF          5 INNER ITERATIONS.
    ------------------------------------------------

 NO OUTPUT CONTROL FOR STRESS PERIOD    5   TIME STEP   26
 
 SOLVING FOR HEAD 
                                                   Max.-Head-Change                         Max.-Flux-Residual
  Residual-Control   Outer-Iter.   Inner-Iter.     Column Row Layer    Maximum-Head-Change  Column Row Layer    Maximum-Flux-Residual          L2-NORM 
          0                 1           2             5    6     1       0.1103704716E-01       5    6    1         0.5967173138E+00      0.1578243710E+01
          0                 2           2             5    6     1      -0.1073601724E-02       5    6    1        -0.5967158868E-01      0.1563144092E+00
          0                 3           1             5    6     1       0.7310813767E-04       5    6    1         0.4177014364E-02      0.1095623154E-01

    ------------------------------------------------
       NWT REQUIRED            3 OUTER ITERATIONS 
       AND A TOTAL OF          5 INNER ITERATIONS.
    ------------------------------------------------

 NO OUTPUT CONTROL FOR STRESS PERIOD    5   TIME STEP   27
 
 SOLVING FOR HEAD 
                                                   Max.-Head-Change                         Max.-Flux-Residual
  Residual-Control   Outer-Iter.   Inner-Iter.     Column Row Layer    Maximum-Head-Change  Column Row Layer    Maximum-Flux-Residual          L2-NORM 
          0                 1           2             5    7     1       0.1067684358E-01       5    6    1         0.5740529959E+00      0.1531139486E+01
          0                 2           2             5    7     1      -0.1038564629E-02       5    6    1        -0.5740516768E-01      0.1515815566E+00
          0                 3           1             5    7     1       0.7072240956E-04       5    6    1         0.4018364728E-02      0.1062477220E-01

    ------------------------------------------------
       NWT REQUIRED            3 OUTER ITERATIONS 
       AND A TOTAL OF          5 INNER ITERATIONS.
    ------------------------------------------------

 NO OUTPUT CONTROL FOR STRESS PERIOD    5   TIME STEP   28
 
 SOLVING FOR HEAD 
                                                   Max.-Head-Change                         Max.-Flux-Residual
  Residual-Control   Outer-Iter.   Inner-Iter.     Column Row Layer    Maximum-Head-Change  Column Row Layer    Maximum-Flux-Residual          L2-NORM 
          0                 1           2             5    7     1       0.1044110607E-01       5    7    1         0.5553294945E+00      0.1801786938E+01
          0                 2           2             4   13     1       0.1265699903E-01       4   13    1         0.7480939020E+00      0.1322729184E+01
          0                 3           2             7   13     1      -0.1433977297E-02       7   13    1        -0.8181143806E-01      0.1180241635E+00
          0                 4           1             7   13     1      -0.8468417471E-04       7   13    1        -0.4840383778E-02      0.5815824251E-02

    ------------------------------------------------
       NWT REQUIRED            4 OUTER ITERATIONS 
       AND A TOTAL OF          7 INNER ITERATIONS.
    ------------------------------------------------

 NO OUTPUT CONTROL FOR STRESS PERIOD    5   TIME STEP   29
 
 SOLVING FOR HEAD 
                                                   Max.-Head-Change                         Max.-Flux-Residual
  Residual-Control   Outer-Iter.   Inner-Iter.     Column Row Layer    Maximum-Head-Change  Column Row Layer    Maximum-Flux-Residual          L2-NORM 
          0                 1           2             5    7     1       0.1023152985E-01       5    7    1         0.5430688378E+00      0.1607316649E+01
          0                 2           2             4   13     1       0.2160223175E-01       4   13    1         0.1251651497E+01      0.2191621320E+01
          0                 3           2             4   13     1      -0.2077195472E-02       4   13    1        -0.1238477443E+00      0.2110355624E+00
          0                 4           2             4   13     1       0.1392861685E-03       4   13    1         0.8542734124E-02      0.1407039567E-01
          0                 5           1             4   13     1      -0.5410337536E-05       4   13    1        -0.3414481389E-03      0.5325099834E-03

    ------------------------------------------------
       NWT REQUIRED            5 OUTER ITERATIONS 
       AND A TOTAL OF          9 INNER ITERATIONS.
    ------------------------------------------------

 NO OUTPUT CONTROL FOR STRESS PERIOD    5   TIME STEP   30



 STREAM LISTING     PERIOD      5   STEP       30

 LAYER ROW COL. STREAM  RCH.  FLOW INTO     FLOW TO   FLOW OUT OF   OVRLND.     DIRECT     STREAM       STREAM     STREAM     STREAM   STREAMBED  STREAMBED
                SEG.NO.  NO.  STRM. RCH.    AQUIFER    STRM. RCH.    RUNOFF     PRECIP       ET          HEAD       DEPTH      WIDTH   CONDCTNC.   GRADIENT

   1    1    1     1     1    9.9000E+01  4.7281E-01   9.8527E+01  0.000E+00  0.000E+00  0.000E+00  1.09484E+03  1.796E+00  2.191E+01  9.859E-02  1.599E+00
   1    2    2     1     2    9.8527E+01  7.3365E-01   9.7794E+01  0.000E+00  0.000E+00  0.000E+00  1.08985E+03  1.793E+00  2.187E+01  1.531E-01  1.598E+00
   1    3    3     1     3    9.7794E+01  6.2707E-01   9.7166E+01  0.000E+00  0.000E+00  0.000E+00  1.08421E+03  1.791E+00  2.181E+01  1.309E-01  1.597E+00
   1    3    4     1     4    9.7166E+01  5.7859E-01   9.6588E+01  0.000E+00  0.000E+00  0.000E+00  1.07920E+03  1.789E+00  2.177E+01  1.208E-01  1.596E+00
   1    4    5     2     1    9.4588E+01  4.4299E-01   9.4145E+01  0.000E+00  0.000E+00  0.000E+00  1.07461E+03  2.679E+00  1.200E+01  7.800E-02  1.893E+00
   1    5    6     2     2    9.4145E+01  3.4036E-01   9.3805E+01  0.000E+00  0.000E+00  0.000E+00  1.06918E+03  2.673E+00  1.200E+01  6.000E-02  1.891E+00
   1    6    6     2     3    9.3805E+01  3.4001E-01   9.3465E+01  0.000E+00  0.000E+00  0.000E+00  1.06446E+03  2.667E+00  1.200E+01  6.000E-02  1.889E+00
   1    7    6     2     4    9.3465E+01  3.3967E-01   9.3125E+01  0.000E+00  0.000E+00  0.000E+00  1.05974E+03  2.661E+00  1.200E+01  6.000E-02  1.887E+00
   1    8    6     2     5    9.3125E+01  3.3932E-01   9.2786E+01  0.000E+00  0.000E+00  0.000E+00  1.05501E+03  2.655E+00  1.200E+01  6.000E-02  1.885E+00
   1    3    5     3     1    2.0000E+00  2.8252E-01   1.7175E+00  0.000E+00  0.000E+00  0.000E+00  1.07555E+03  1.909E+00  9.636E+00  7.227E-02  1.955E+00
   1    3    6     3     2    1.7175E+00  2.4905E-01   1.4684E+00  0.000E+00  0.000E+00  0.000E+00  1.07264E+03  1.727E+00  8.909E+00  6.682E-02  1.864E+00
   1    3    7     3     3    1.4684E+00  1.9718E-01   1.2712E+00  0.000E+00  0.000E+00  0.000E+00  1.06987E+03  1.555E+00  8.218E+00  5.547E-02  1.777E+00
   1    4    8     3     4    1.2712E+00  2.2567E-01   1.0456E+00  0.000E+00  0.000E+00  0.000E+00  1.06682E+03  1.364E+00  7.455E+00  6.709E-02  1.682E+00
   1    5    8     3     5    1.0456E+00  1.5790E-01   8.8768E-01  0.000E+00  0.000E+00  0.000E+00  1.06362E+03  1.164E+00  6.655E+00  4.991E-02  1.582E+00
   1    6    8     3     6    8.8768E-01  5.5980E-02   8.3170E-01  0.000E+00  0.000E+00  0.000E+00  1.06158E+03  1.036E+00  6.145E+00  1.844E-02  1.518E+00
   1    5   10     4     1    1.0000E+01  9.0919E-02   9.9091E+00  0.000E+00  0.000E+00  0.000E+00  1.07836E+03  6.368E-01  1.000E+01  2.500E-02  1.212E+00
   1    5    9     4     2    9.9091E+00  1.8158E-01   9.7275E+00  0.000E+00  0.000E+00  0.000E+00  1.07154E+03  6.315E-01  1.000E+01  5.000E-02  1.211E+00
   1    6    8     4     3    9.7275E+00  1.2689E-01   9.6006E+00  0.000E+00  0.000E+00  0.000E+00  1.06381E+03  6.256E-01  1.000E+01  3.500E-02  1.209E+00
   1    6    8     5     1    1.0432E+01  2.2686E-01   1.0205E+01  0.000E+00  0.000E+00  0.000E+00  1.05868E+03  6.790E-01  1.542E+01  6.166E-02  1.226E+00
   1    7    7     5     2    1.0205E+01  2.7894E-01   9.9265E+00  0.000E+00  0.000E+00  0.000E+00  1.05417E+03  6.732E-01  1.519E+01  7.594E-02  1.224E+00
   1    8    7     5     3    9.9265E+00  1.9221E-01   9.7343E+00  0.000E+00  0.000E+00  0.000E+00  1.04992E+03  6.676E-01  1.497E+01  5.241E-02  1.223E+00
   1    8    6     5     4    9.7343E+00  1.3577E-01   9.5985E+00  0.000E+00  0.000E+00  0.000E+00  1.04691E+03  6.637E-01  1.482E+01  3.706E-02  1.221E+00
   1    9    6     6     1    1.0238E+02  3.5054E-01   1.0203E+02  0.000E+00  0.000E+00  0.000E+00  1.04557E+03  2.842E+00  1.200E+01  6.000E-02  1.947E+00
   1   10    7     6     2    1.0203E+02  3.5018E-01   1.0168E+02  0.000E+00  0.000E+00  0.000E+00  1.04102E+03  2.836E+00  1.200E+01  6.000E-02  1.945E+00
   1   11    7     6     3    1.0168E+02  3.4983E-01   1.0133E+02  0.000E+00  0.000E+00  0.000E+00  1.03647E+03  2.831E+00  1.200E+01  6.000E-02  1.944E+00
   1   12    7     6     4    1.0133E+02  3.4948E-01   1.0098E+02  0.000E+00  0.000E+00  0.000E+00  1.03192E+03  2.825E+00  1.200E+01  6.000E-02  1.942E+00
   1   13    7     6     5    1.0098E+02  3.8213E-02   1.0095E+02  0.000E+00  0.000E+00  0.000E+00  1.02873E+03  2.821E+00  1.200E+01  2.400E-02  5.307E-01
   1   14    9     7     1    1.5000E+02  1.3357E+00   1.4866E+02  0.000E+00  0.000E+00  0.000E+00  1.03987E+03  2.288E+00  5.529E+01  5.593E-01  7.961E-01
   1   13    8     7     2    1.4866E+02  1.8228E+00   1.4684E+02  0.000E+00  0.000E+00  0.000E+00  1.03478E+03  2.279E+00  5.526E+01  6.148E-01  9.884E-01
   1   13    7     7     3    1.4684E+02  1.4250E+00   1.4542E+02  0.000E+00  0.000E+00  0.000E+00  1.02969E+03  2.271E+00  5.522E+01  5.585E-01  8.506E-01
   1   13    6     8     1    2.4636E+02  1.2065E+00   2.4516E+02  0.000E+00  0.000E+00  0.000E+00  1.02526E+03  3.390E+00  4.915E+01  5.009E-01  8.029E-01
   1   13    5     8     2    2.4516E+02  3.4962E-01   2.4481E+02  0.000E+00  0.000E+00  0.000E+00  1.01901E+03  3.386E+00  4.909E+01  5.003E-01  2.330E-01
   1   13    4     8     3    2.4481E+02 -1.1046E+00   2.4591E+02  0.000E+00  0.000E+00  0.000E+00  1.01276E+03  3.388E+00  4.912E+01  5.006E+00 -7.356E-02
   1   13    3     8     4    2.4591E+02 -2.3884E+00   2.4830E+02  0.000E+00  0.000E+00  0.000E+00  1.00652E+03  3.397E+00  4.925E+01  5.019E+00 -1.586E-01
   1   13    2     8     5    2.4830E+02 -1.1960E+00   2.4950E+02  0.000E+00  0.000E+00  0.000E+00  1.00028E+03  3.406E+00  4.939E+01  5.033E+00 -7.922E-02
   1   13    1     8     6    2.4950E+02 -1.1802E+00   2.5068E+02  0.000E+00  0.000E+00  0.000E+00  9.95287E+02  3.412E+00  4.947E+01  3.025E+00 -1.301E-01
   1    8    6     9     1    0.0000E+00  0.0000E+00   0.0000E+00  0.000E+00  0.000E+00  0.000E+00  1.07875E+03  0.000E+00  4.000E+00  0.000E+00  1.000E+00
   1    8    5     9     2    0.0000E+00  0.0000E+00   0.0000E+00  0.000E+00  0.000E+00  0.000E+00  1.07825E+03  0.000E+00  4.000E+00  0.000E+00  1.000E+00





UNSATURATED ZONE PACKAGE VOLUMETRIC BUDGET FOR  TIME STEP    30 STRESS PERIOD    5
  ------------------------------------------------------------------------------



     CUMULATIVE VOLUMES      L**3       RATES FOR THIS TIME STEP      L**3/T
     ------------------                 ------------------------

           IN:                                      IN:
           ---                                      ---
        INFILTRATION =    52795575.0000          INFILTRATION =           0.8475

          OUT:                                     OUT:
          ----                                     ----
              UZF ET =     3827656.8733                UZF ET =           1.5275
        UZF RECHARGE =     4919256.9372          UZF RECHARGE =           0.3569

            IN - OUT =    44048661.1894              IN - OUT =          -1.0369

          STORAGE:                                 STORAGE:
          --------                                 --------
      STORAGE CHANGE =    44061222.5047        STORAGE CHANGE =          -1.0369

 PERCENT DISCREPANCY IS DIFFERENCE BETWEEN IN-OUT MINUS CHANGE IN STORAGE
 DIVIDED BY THE AVERAGE OF IN AND OUT TIMES 100

 PERCENT DISCREPANCY =          -0.01     PERCENT DISCREPANCY =           0.00






1
  VOLUMETRIC BUDGET FOR ENTIRE MODEL AT END OF TIME STEP   30, STRESS PERIOD   5
  ------------------------------------------------------------------------------

     CUMULATIVE VOLUMES      L**3       RATES FOR THIS TIME STEP      L**3/T
     ------------------                 ------------------------

           IN:                                      IN:
           ---                                      ---
               AWU WELLS =    31536000.0000                 AWU WELLS =           0.0000
      DIVERSION SEGMENTS =    12277183.0000        DIVERSION SEGMENTS =           0.0000
           GW IRRIGATION =           0.0000             GW IRRIGATION =           0.0000
           SW IRRIGATION =           0.0000             SW IRRIGATION =           0.0000
        SYSTEM LOSSES GW =           0.0000          SYSTEM LOSSES GW =           0.0000
        SYSTEM LOSSES SW =           0.0000          SYSTEM LOSSES SW =           0.0000

                TOTAL IN =    43813184.0000                  TOTAL IN =           0.0000

          OUT:                                     OUT:
          ----                                     ----
               AWU WELLS =           0.0000                 AWU WELLS =           0.0000
      DIVERSION SEGMENTS =           0.0000        DIVERSION SEGMENTS =           0.0000
           GW IRRIGATION =    31536000.0000             GW IRRIGATION =           0.0000
           SW IRRIGATION =    12277428.0000             SW IRRIGATION =           0.0000
        SYSTEM LOSSES GW =           0.0000          SYSTEM LOSSES GW =           0.0000
        SYSTEM LOSSES SW =           0.0000          SYSTEM LOSSES SW =           0.0000

               TOTAL OUT =    43813428.0000                 TOTAL OUT =           0.0000

                IN - OUT =        -244.0000                  IN - OUT =           0.0000

     PERCENT DISCREPANCY =          -0.00         PERCENT DISCREPANCY =           0.00



1
  VOLUMETRIC BUDGET FOR ENTIRE MODEL AT END OF TIME STEP   30, STRESS PERIOD   5
  ------------------------------------------------------------------------------

     CUMULATIVE VOLUMES      L**3       RATES FOR THIS TIME STEP      L**3/T
     ------------------                 ------------------------

           IN:                                      IN:
           ---                                      ---
             STORAGE     =    48637780.0000               STORAGE     =           2.3858
       CONSTANT HEAD     =           0.0000         CONSTANT HEAD     =           0.0000
     HEAD DEP BOUNDS     =     3028591.7500       HEAD DEP BOUNDS     =           0.2858
      STREAM LEAKAGE     =   130524792.0000        STREAM LEAKAGE     =          14.1939
        UZF RECHARGE     =     4919255.0000          UZF RECHARGE     =           0.3569
               GW ET     =           0.0000                 GW ET     =           0.0000
     SURFACE LEAKAGE     =           0.0000       SURFACE LEAKAGE     =           0.0000
           AWU WELLS     =           0.0000             AWU WELLS     =           0.0000

                TOTAL IN =   187110416.0000                  TOTAL IN =          17.2223

          OUT:                                     OUT:
          ----                                     ----
             STORAGE     =    40806800.0000               STORAGE     =          10.5617
       CONSTANT HEAD     =           0.0000         CONSTANT HEAD     =           0.0000
     HEAD DEP BOUNDS     =     3092225.7500       HEAD DEP BOUNDS     =           0.2917
      STREAM LEAKAGE     =   110197336.0000        STREAM LEAKAGE     =           5.8693
        UZF RECHARGE     =           0.0000          UZF RECHARGE     =           0.0000
               GW ET     =     1485752.3750                 GW ET     =           0.4996
     SURFACE LEAKAGE     =           0.0000       SURFACE LEAKAGE     =           0.0000
           AWU WELLS     =    31536000.0000             AWU WELLS     =           0.0000

               TOTAL OUT =   187118112.0000                 TOTAL OUT =          17.2223

                IN - OUT =       -7696.0000                  IN - OUT =       2.4796E-05

     PERCENT DISCREPANCY =          -0.00         PERCENT DISCREPANCY =           0.00






         TIME SUMMARY AT END OF TIME STEP   30 IN STRESS PERIOD    5
                    SECONDS     MINUTES      HOURS       DAYS        YEARS
                    -----------------------------------------------------------
   TIME STEP LENGTH  87600.      1460.0      24.333      1.0139     2.77588E-03
 STRESS PERIOD TIME 2.62800E+06  43800.      730.00      30.417     8.32763E-02
         TOTAL TIME 1.05984E+07 1.76640E+05  2944.0      122.67     0.33584    
1
1
                            STRESS PERIOD NO.    6, LENGTH =   2628000.    
                            -----------------------------------------------

                              NUMBER OF TIME STEPS =    30

                               MULTIPLIER FOR DELT =     1.000

                            INITIAL TIME STEP SIZE =   87600.00    

 REUSING NON-PARAMETER GHB CELLS FROM LAST STRESS PERIOD

      2 GHB CELLS

 REUSING STREAM SEGMENT DATA FROM LAST STRESS PERIOD



            AREAL INFILTRATION RATE
 READING ON UNIT   19 WITH FORMAT: (10F4.0)            

            1           2           3           4           5           6           7           8           9          10
 ........................................................................................................................
   1   1.0000E-10  2.0000E-10   0.000       0.000       0.000       0.000       0.000       0.000       0.000       0.000    
   2   2.0000E-10  1.0000E-10  2.0000E-10   0.000       0.000      8.0000E-10  8.0000E-10  5.0000E-10   0.000       0.000    
   3    0.000      5.0000E-10  1.0000E-10  1.0000E-10  8.0000E-10  8.0000E-10  5.0000E-10  5.0000E-10   0.000       0.000    
   4   8.0000E-10  5.0000E-10  1.0000E-10  1.0000E-10  1.0000E-10  1.0000E-10  1.0000E-10  1.0000E-10  2.0000E-10   0.000    
   5   8.0000E-10  5.0000E-10  1.0000E-10  1.0000E-10  1.0000E-10  1.0000E-10  1.0000E-10  1.0000E-10  1.0000E-10  1.0000E-10
   6   8.0000E-10  5.0000E-10  5.0000E-10  2.0000E-10  2.0000E-10  1.0000E-10  1.0000E-10  1.0000E-10  1.0000E-10  5.0000E-10
   7   8.0000E-10  5.0000E-10  5.0000E-10  2.0000E-10  2.0000E-10  1.0000E-10  1.0000E-10  2.0000E-10  2.0000E-10   0.000    
   8    0.000      5.0000E-10  5.0000E-10  2.0000E-10  2.0000E-10  1.0000E-10  1.0000E-10  2.0000E-10  5.0000E-10   0.000    
   9    0.000      5.0000E-10  5.0000E-10  2.0000E-10  2.0000E-10  1.0000E-10  1.0000E-10  2.0000E-10  5.0000E-10   0.000    
  10    0.000      5.0000E-10  5.0000E-10  2.0000E-10  2.0000E-10  1.0000E-10  1.0000E-10  2.0000E-10  5.0000E-10  8.0000E-10
  11    0.000      1.0000E-10  1.0000E-10  1.0000E-10  1.0000E-10  1.0000E-10  1.0000E-10  2.0000E-10  5.0000E-10   0.000    
  12   1.0000E-10  1.0000E-10  1.0000E-10  1.0000E-10  1.0000E-10  1.0000E-10  1.0000E-10  1.0000E-10  2.0000E-10   0.000    
  13   1.0000E-10  1.0000E-10  2.0000E-10  2.0000E-10  2.0000E-10  2.0000E-10  2.0000E-10  1.0000E-10  1.0000E-10   0.000    
  14    0.000      2.0000E-10  5.0000E-10  5.0000E-10  5.0000E-10  5.0000E-10  5.0000E-10  2.0000E-10  1.0000E-10   0.000    
  15    0.000       0.000      8.0000E-10  8.0000E-10  8.0000E-10  8.0000E-10   0.000       0.000       0.000       0.000    

                  ET RATE =  1.000000E-08

 USING ET EXTINCTION DEPTH FROM PREVIOUS STRESS PERIOD. CURRENT PERIOD IS:       6

 USING EXTINCTION WATER CONTENT FROM PREVIOUS STRESS PERIOD. CURRENT PERIOD IS:       6

 PROCESSING AWU STRESS PERIOD DATA

 READING AWU STRESS PERIOD DATA

 READING IRRIGATION STREAM

 READING IRRIGATION WELL

 READING SUPPLEMENTAL WEL

 END PROCESSING AWU STRESS PERIOD DATA OPTIONS
 
 SOLVING FOR HEAD 
                                                   Max.-Head-Change                         Max.-Flux-Residual
  Residual-Control   Outer-Iter.   Inner-Iter.     Column Row Layer    Maximum-Head-Change  Column Row Layer    Maximum-Flux-Residual          L2-NORM 
          0                 1           2             5    7     1       0.1002641063E-01       5    7    1         0.5321610307E+00      0.1524250450E+01
          0                 2           2             4   13     1       0.2187813062E-01       4   13    1         0.1268056935E+01      0.2215939966E+01
          0                 3           2             4   13     1      -0.2103871293E-02       4   13    1        -0.1254760971E+00      0.2075055418E+00
          0                 4           2             4   13     1       0.1410843302E-03       4   13    1         0.8656276119E-02      0.1363182293E-01
          0                 5           1             4   13     1      -0.5458538469E-05       4   13    1        -0.3445931488E-03      0.5159799207E-03

    ------------------------------------------------
       NWT REQUIRED            5 OUTER ITERATIONS 
       AND A TOTAL OF          9 INNER ITERATIONS.
    ------------------------------------------------

 NO OUTPUT CONTROL FOR STRESS PERIOD    6   TIME STEP    1
 
 SOLVING FOR HEAD 
                                                   Max.-Head-Change                         Max.-Flux-Residual
  Residual-Control   Outer-Iter.   Inner-Iter.     Column Row Layer    Maximum-Head-Change  Column Row Layer    Maximum-Flux-Residual          L2-NORM 
          0                 1           2             5    7     1       0.9826068509E-02       5    7    1         0.5215011003E+00      0.1497373886E+01
          0                 2           2             4   13     1       0.2135522126E-01       4   13    1         0.1272501584E+01      0.2220611267E+01
          0                 3           2             4   13     1      -0.1431227212E-02       4   13    1        -0.8770393990E-01      0.1482128641E+00
          0                 4           1             4   13     1       0.5548603758E-04       4   13    1         0.3495953111E-02      0.5612434565E-02

    ------------------------------------------------
       NWT REQUIRED            4 OUTER ITERATIONS 
       AND A TOTAL OF          7 INNER ITERATIONS.
    ------------------------------------------------

 NO OUTPUT CONTROL FOR STRESS PERIOD    6   TIME STEP    2
 
 SOLVING FOR HEAD 
                                                   Max.-Head-Change                         Max.-Flux-Residual
  Residual-Control   Outer-Iter.   Inner-Iter.     Column Row Layer    Maximum-Head-Change  Column Row Layer    Maximum-Flux-Residual          L2-NORM 
          0                 1           2             5    7     1       0.9630197553E-02       5    7    1         0.5110725211E+00      0.1491904144E+01
          0                 2           2             4   13     1       0.2142033366E-01       4   13    1         0.1276423593E+01      0.2224838221E+01
          0                 3           2             4   13     1      -0.1435708614E-02       4   13    1        -0.8798141447E-01      0.1485283534E+00
          0                 4           1             4   13     1       0.5565975258E-04       4   13    1         0.3507006323E-02      0.5625114044E-02

    ------------------------------------------------
       NWT REQUIRED            4 OUTER ITERATIONS 
       AND A TOTAL OF          7 INNER ITERATIONS.
    ------------------------------------------------

 NO OUTPUT CONTROL FOR STRESS PERIOD    6   TIME STEP    3
 
 SOLVING FOR HEAD 
                                                   Max.-Head-Change                         Max.-Flux-Residual
  Residual-Control   Outer-Iter.   Inner-Iter.     Column Row Layer    Maximum-Head-Change  Column Row Layer    Maximum-Flux-Residual          L2-NORM 
          0                 1           2             4    7     1       0.9504158539E-02       5    7    1         0.5008924697E+00      0.1502477125E+01
          0                 2           2             4   13     1       0.2147777539E-01       4   13    1         0.1279882582E+01      0.2228656320E+01
          0                 3           2             4   13     1      -0.1439712251E-02       4   13    1        -0.8822926921E-01      0.1488143221E+00
          0                 4           1             4   13     1       0.5585656954E-04       4   13    1         0.3519507786E-02      0.5639062113E-02

    ------------------------------------------------
       NWT REQUIRED            4 OUTER ITERATIONS 
       AND A TOTAL OF          7 INNER ITERATIONS.
    ------------------------------------------------

 NO OUTPUT CONTROL FOR STRESS PERIOD    6   TIME STEP    4
 
 SOLVING FOR HEAD 
                                                   Max.-Head-Change                         Max.-Flux-Residual
  Residual-Control   Outer-Iter.   Inner-Iter.     Column Row Layer    Maximum-Head-Change  Column Row Layer    Maximum-Flux-Residual          L2-NORM 
          0                 1           2             4    7     1       0.9420640697E-02       4    7    1         0.4942109120E+00      0.1524450832E+01
          0                 2           2             4   13     1       0.2152839144E-01       4   13    1         0.1282929580E+01      0.2232104479E+01
          0                 3           2             4   13     1      -0.1443148140E-02       4   13    1        -0.8844188781E-01      0.1490698800E+00
          0                 4           1             4   13     1       0.5596724044E-04       4   13    1         0.3526526750E-02      0.5650012544E-02

    ------------------------------------------------
       NWT REQUIRED            4 OUTER ITERATIONS 
       AND A TOTAL OF          7 INNER ITERATIONS.
    ------------------------------------------------

 NO OUTPUT CONTROL FOR STRESS PERIOD    6   TIME STEP    5
 
 SOLVING FOR HEAD 
                                                   Max.-Head-Change                         Max.-Flux-Residual
  Residual-Control   Outer-Iter.   Inner-Iter.     Column Row Layer    Maximum-Head-Change  Column Row Layer    Maximum-Flux-Residual          L2-NORM 
          0                 1           2             4    7     1       0.9333243108E-02       2   13    1         0.5143480740E+00      0.1617634165E+01
          0                 2           2             4   13     1       0.4878801677E-02       4   13    1         0.2828431909E+00      0.4987472051E+00
          0                 3           2             4   13     1      -0.4693253154E-03       4   13    1        -0.2798329907E-01      0.4752968439E-01
          0                 4           1             4   13     1       0.3148616159E-04       4   13    1         0.1930072673E-02      0.3149422055E-02

    ------------------------------------------------
       NWT REQUIRED            4 OUTER ITERATIONS 
       AND A TOTAL OF          7 INNER ITERATIONS.
    ------------------------------------------------

 NO OUTPUT CONTROL FOR STRESS PERIOD    6   TIME STEP    6
 
 SOLVING FOR HEAD 
                                                   Max.-Head-Change                         Max.-Flux-Residual
  Residual-Control   Outer-Iter.   Inner-Iter.     Column Row Layer    Maximum-Head-Change  Column Row Layer    Maximum-Flux-Residual          L2-NORM 
          0                 1           2             2   13     1       0.1325172978E-01       2   13    1         0.7539436816E+00      0.1870500760E+01
          0                 2           2             2   13     1      -0.1230444829E-02       2   13    1        -0.7198410396E-01      0.1707423678E+00
          0                 3           1             2   13     1       0.7847109792E-04       2   13    1         0.4716476100E-02      0.1168696238E-01

    ------------------------------------------------
       NWT REQUIRED            3 OUTER ITERATIONS 
       AND A TOTAL OF          5 INNER ITERATIONS.
    ------------------------------------------------

 NO OUTPUT CONTROL FOR STRESS PERIOD    6   TIME STEP    7
 
 SOLVING FOR HEAD 
                                                   Max.-Head-Change                         Max.-Flux-Residual
  Residual-Control   Outer-Iter.   Inner-Iter.     Column Row Layer    Maximum-Head-Change  Column Row Layer    Maximum-Flux-Residual          L2-NORM 
          0                 1           2             2   13     1       0.1214858074E-01       2   13    1         0.6911107467E+00      0.1778338091E+01
          0                 2           2             2   13     1      -0.1128643728E-02       2   13    1        -0.6602444018E-01      0.1612859398E+00
          0                 3           1             2   13     1       0.7208840426E-04       2   13    1         0.4332291042E-02      0.1106244637E-01

    ------------------------------------------------
       NWT REQUIRED            3 OUTER ITERATIONS 
       AND A TOTAL OF          5 INNER ITERATIONS.
    ------------------------------------------------

 NO OUTPUT CONTROL FOR STRESS PERIOD    6   TIME STEP    8
 
 SOLVING FOR HEAD 
                                                   Max.-Head-Change                         Max.-Flux-Residual
  Residual-Control   Outer-Iter.   Inner-Iter.     Column Row Layer    Maximum-Head-Change  Column Row Layer    Maximum-Flux-Residual          L2-NORM 
          0                 1           2             2   13     1       0.1113835900E-01       2   13    1         0.6335517460E+00      0.1697761211E+01
          0                 2           2             2   13     1      -0.1035192252E-02       2   13    1        -0.6055168440E-01      0.1520610480E+00
          0                 3           1             2   13     1       0.6623969011E-04       2   13    1         0.3980106247E-02      0.1044596823E-01

    ------------------------------------------------
       NWT REQUIRED            3 OUTER ITERATIONS 
       AND A TOTAL OF          5 INNER ITERATIONS.
    ------------------------------------------------

 NO OUTPUT CONTROL FOR STRESS PERIOD    6   TIME STEP    9
 
 SOLVING FOR HEAD 
                                                   Max.-Head-Change                         Max.-Flux-Residual
  Residual-Control   Outer-Iter.   Inner-Iter.     Column Row Layer    Maximum-Head-Change  Column Row Layer    Maximum-Flux-Residual          L2-NORM 
          0                 1           2             2   13     1       0.1021336999E-01       2   13    1         0.5808522023E+00      0.1625650840E+01
          0                 2           2             2   13     1      -0.9495152142E-03       2   13    1        -0.5553455849E-01      0.1444776741E+00
          0                 3           1             2   13     1       0.6078502678E-04       2   13    1         0.3651657682E-02      0.9949292818E-02

    ------------------------------------------------
       NWT REQUIRED            3 OUTER ITERATIONS 
       AND A TOTAL OF          5 INNER ITERATIONS.
    ------------------------------------------------

 NO OUTPUT CONTROL FOR STRESS PERIOD    6   TIME STEP   10
 
 SOLVING FOR HEAD 
                                                   Max.-Head-Change                         Max.-Flux-Residual
  Residual-Control   Outer-Iter.   Inner-Iter.     Column Row Layer    Maximum-Head-Change  Column Row Layer    Maximum-Flux-Residual          L2-NORM 
          0                 1           2             2   13     1       0.9366427215E-02       2   13    1         0.5326023814E+00      0.1560692377E+01
          0                 2           2             2   13     1      -0.8710410143E-03       2   13    1        -0.5093953733E-01      0.1377186764E+00
          0                 3           1             4    7     1       0.5864882909E-04       2   13    1         0.3352026667E-02      0.9501922912E-02

    ------------------------------------------------
       NWT REQUIRED            3 OUTER ITERATIONS 
       AND A TOTAL OF          5 INNER ITERATIONS.
    ------------------------------------------------

 NO OUTPUT CONTROL FOR STRESS PERIOD    6   TIME STEP   11
 
 SOLVING FOR HEAD 
                                                   Max.-Head-Change                         Max.-Flux-Residual
  Residual-Control   Outer-Iter.   Inner-Iter.     Column Row Layer    Maximum-Head-Change  Column Row Layer    Maximum-Flux-Residual          L2-NORM 
          0                 1           2             4    7     1       0.8752252753E-02       2   13    1         0.4884326571E+00      0.1502248290E+01
          0                 2           2             4    7     1      -0.8513561604E-03       4    7    1        -0.4604049287E-01      0.1192873768E+00
          0                 3           1             4    7     1       0.5797419170E-04       4    7    1         0.3222835491E-02      0.8211889263E-02

    ------------------------------------------------
       NWT REQUIRED            3 OUTER ITERATIONS 
       AND A TOTAL OF          5 INNER ITERATIONS.
    ------------------------------------------------

 NO OUTPUT CONTROL FOR STRESS PERIOD    6   TIME STEP   12
 
 SOLVING FOR HEAD 
                                                   Max.-Head-Change                         Max.-Flux-Residual
  Residual-Control   Outer-Iter.   Inner-Iter.     Column Row Layer    Maximum-Head-Change  Column Row Layer    Maximum-Flux-Residual          L2-NORM 
          0                 1           2             5    8     1      -0.3684559135E-01       5    8    1        -0.1974569362E+01      0.4888295249E+01
          0                 2           2             5    8     1       0.3584025944E-02       5    8    1         0.1974538012E+00      0.4833197395E+00
          0                 3           2             5    8     1      -0.2440593239E-03       5    8    1        -0.1382180172E-01      0.3379289460E-01
          0                 4           1             5    8     1       0.9711346500E-05       5    8    1         0.5653123305E-03      0.1384843106E-02

    ------------------------------------------------
       NWT REQUIRED            4 OUTER ITERATIONS 
       AND A TOTAL OF          7 INNER ITERATIONS.
    ------------------------------------------------

 NO OUTPUT CONTROL FOR STRESS PERIOD    6   TIME STEP   13
 
 SOLVING FOR HEAD 
                                                   Max.-Head-Change                         Max.-Flux-Residual
  Residual-Control   Outer-Iter.   Inner-Iter.     Column Row Layer    Maximum-Head-Change  Column Row Layer    Maximum-Flux-Residual          L2-NORM 
          0                 1           2             4   13     1      -0.1368987524E-01       4   13    1        -0.7902536659E+00      0.1799688927E+01
          0                 2           2             4   13     1       0.2174399308E-01       4   13    1         0.1295921888E+01      0.2249176907E+01
          0                 3           2             4   13     1      -0.1457982580E-02       4   13    1        -0.8936349596E-01      0.1449698283E+00
          0                 4           1             2   13     1      -0.6847995711E-04       2   13    1        -0.4197361826E-02      0.6450675712E-02

    ------------------------------------------------
       NWT REQUIRED            4 OUTER ITERATIONS 
       AND A TOTAL OF          7 INNER ITERATIONS.
    ------------------------------------------------

 NO OUTPUT CONTROL FOR STRESS PERIOD    6   TIME STEP   14
 
 SOLVING FOR HEAD 
                                                   Max.-Head-Change                         Max.-Flux-Residual
  Residual-Control   Outer-Iter.   Inner-Iter.     Column Row Layer    Maximum-Head-Change  Column Row Layer    Maximum-Flux-Residual          L2-NORM 
          0                 1           2             4   13     1      -0.1435481224E-01       4   13    1        -0.8286457912E+00      0.1829611942E+01
          0                 2           2             4   13     1       0.2176424777E-01       4   13    1         0.1297140289E+01      0.2249344134E+01
          0                 3           2             4   13     1      -0.1027902394E-02       4   13    1        -0.6297537024E-01      0.9878608615E-01
          0                 4           1             4   13     1      -0.5453871415E-04       4   13    1        -0.3352760534E-02      0.5154072076E-02

    ------------------------------------------------
       NWT REQUIRED            4 OUTER ITERATIONS 
       AND A TOTAL OF          7 INNER ITERATIONS.
    ------------------------------------------------

 NO OUTPUT CONTROL FOR STRESS PERIOD    6   TIME STEP   15
 
 SOLVING FOR HEAD 
                                                   Max.-Head-Change                         Max.-Flux-Residual
  Residual-Control   Outer-Iter.   Inner-Iter.     Column Row Layer    Maximum-Head-Change  Column Row Layer    Maximum-Flux-Residual          L2-NORM 
          0                 1           2             4   13     1      -0.1495047000E-01       4   13    1        -0.8630352575E+00      0.1859990786E+01
          0                 2           2             4   13     1       0.2174732060E-01       4   13    1         0.1296139938E+01      0.2248545623E+01
          0                 3           2             4   13     1      -0.7938696817E-03       4   13    1        -0.4865635512E-01      0.8281107020E-01
          0                 4           1             4   13     1      -0.4203578234E-04       4   13    1        -0.2588134493E-02      0.4227137340E-02

    ------------------------------------------------
       NWT REQUIRED            4 OUTER ITERATIONS 
       AND A TOTAL OF          7 INNER ITERATIONS.
    ------------------------------------------------

 NO OUTPUT CONTROL FOR STRESS PERIOD    6   TIME STEP   16
 
 SOLVING FOR HEAD 
                                                   Max.-Head-Change                         Max.-Flux-Residual
  Residual-Control   Outer-Iter.   Inner-Iter.     Column Row Layer    Maximum-Head-Change  Column Row Layer    Maximum-Flux-Residual          L2-NORM 
          0                 1           2             4   13     1      -0.1553924422E-01       4   13    1        -0.8970080713E+00      0.1891255674E+01
          0                 2           2             4   13     1       0.2176474160E-01       4   13    1         0.1297186843E+01      0.2249950576E+01
          0                 3           2             4   13     1      -0.8482651306E-03       4   13    1        -0.5199317601E-01      0.8754620942E-01
          0                 4           1             4   13     1      -0.4492936513E-04       4   13    1        -0.2765505869E-02      0.4512759756E-02

    ------------------------------------------------
       NWT REQUIRED            4 OUTER ITERATIONS 
       AND A TOTAL OF          7 INNER ITERATIONS.
    ------------------------------------------------

 NO OUTPUT CONTROL FOR STRESS PERIOD    6   TIME STEP   17
 
 SOLVING FOR HEAD 
                                                   Max.-Head-Change                         Max.-Flux-Residual
  Residual-Control   Outer-Iter.   Inner-Iter.     Column Row Layer    Maximum-Head-Change  Column Row Layer    Maximum-Flux-Residual          L2-NORM 
          0                 1           2             4   13     1      -0.1606051185E-01       4   13    1        -0.9270714738E+00      0.1920058782E+01
          0                 2           2             4   13     1       0.2177977116E-01       4   13    1         0.1298089692E+01      0.2251200219E+01
          0                 3           2             4   13     1      -0.8964102643E-03       4   13    1        -0.5494602807E-01      0.9189263127E-01
          0                 4           1             4   13     1      -0.4748369613E-04       4   13    1        -0.2922049694E-02      0.4772153120E-02

    ------------------------------------------------
       NWT REQUIRED            4 OUTER ITERATIONS 
       AND A TOTAL OF          7 INNER ITERATIONS.
    ------------------------------------------------

 NO OUTPUT CONTROL FOR STRESS PERIOD    6   TIME STEP   18
 
 SOLVING FOR HEAD 
                                                   Max.-Head-Change                         Max.-Flux-Residual
  Residual-Control   Outer-Iter.   Inner-Iter.     Column Row Layer    Maximum-Head-Change  Column Row Layer    Maximum-Flux-Residual          L2-NORM 
          0                 1           2             4   13     1      -0.1652213157E-01       4   13    1        -0.9536813955E+00      0.1946435841E+01
          0                 2           2             4   13     1       0.2179266932E-01       4   13    1         0.1298864205E+01      0.2252306408E+01
          0                 3           2             4   13     1      -0.9390824245E-03       4   13    1        -0.5756276037E-01      0.9586134922E-01
          0                 4           1             4   13     1      -0.4975304883E-04       4   13    1        -0.3061105198E-02      0.5008545375E-02

    ------------------------------------------------
       NWT REQUIRED            4 OUTER ITERATIONS 
       AND A TOTAL OF          7 INNER ITERATIONS.
    ------------------------------------------------

 NO OUTPUT CONTROL FOR STRESS PERIOD    6   TIME STEP   19
 
 SOLVING FOR HEAD 
                                                   Max.-Head-Change                         Max.-Flux-Residual
  Residual-Control   Outer-Iter.   Inner-Iter.     Column Row Layer    Maximum-Head-Change  Column Row Layer    Maximum-Flux-Residual          L2-NORM 
          0                 1           2             4    7     1       0.8233107213E-02       4    7    1         0.4330606682E+00      0.1229933345E+01
          0                 2           2             4   13     1       0.1505552900E-02       4   13    1         0.8738505270E-01      0.1766312680E+00
          0                 3           1             4    7     1       0.5453541521E-04       4    7    1         0.3031428535E-02      0.7269996128E-02

    ------------------------------------------------
       NWT REQUIRED            3 OUTER ITERATIONS 
       AND A TOTAL OF          5 INNER ITERATIONS.
    ------------------------------------------------

 NO OUTPUT CONTROL FOR STRESS PERIOD    6   TIME STEP   20
 
 SOLVING FOR HEAD 
                                                   Max.-Head-Change                         Max.-Flux-Residual
  Residual-Control   Outer-Iter.   Inner-Iter.     Column Row Layer    Maximum-Head-Change  Column Row Layer    Maximum-Flux-Residual          L2-NORM 
          0                 1           2             4    7     1       0.8137196738E-02       4    7    1         0.4281227467E+00      0.1250404161E+01
          0                 2           2             4    7     1      -0.7915279964E-03       4    7    1        -0.4281231868E-01      0.9885986889E-01
          0                 3           1             4    7     1       0.5390011575E-04       4    7    1         0.2996863189E-02      0.6981625057E-02

    ------------------------------------------------
       NWT REQUIRED            3 OUTER ITERATIONS 
       AND A TOTAL OF          5 INNER ITERATIONS.
    ------------------------------------------------

 NO OUTPUT CONTROL FOR STRESS PERIOD    6   TIME STEP   21
 
 SOLVING FOR HEAD 
                                                   Max.-Head-Change                         Max.-Flux-Residual
  Residual-Control   Outer-Iter.   Inner-Iter.     Column Row Layer    Maximum-Head-Change  Column Row Layer    Maximum-Flux-Residual          L2-NORM 
          0                 1           2             4    7     1       0.8040193535E-02       4    7    1         0.4231164357E+00      0.1221287459E+01
          0                 2           2             4    7     1      -0.7820922511E-03       4    7    1        -0.4231168909E-01      0.9571647135E-01
          0                 3           1             4    7     1       0.5325757598E-04       4    7    1         0.2961819066E-02      0.6671815697E-02

    ------------------------------------------------
       NWT REQUIRED            3 OUTER ITERATIONS 
       AND A TOTAL OF          5 INNER ITERATIONS.
    ------------------------------------------------

 NO OUTPUT CONTROL FOR STRESS PERIOD    6   TIME STEP   22
 
 SOLVING FOR HEAD 
                                                   Max.-Head-Change                         Max.-Flux-Residual
  Residual-Control   Outer-Iter.   Inner-Iter.     Column Row Layer    Maximum-Head-Change  Column Row Layer    Maximum-Flux-Residual          L2-NORM 
          0                 1           2             4    7     1       0.7942848059E-02       4    7    1         0.4180830666E+00      0.1195016475E+01
          0                 2           2             4    7     1      -0.7726232088E-03       4    7    1        -0.4180835344E-01      0.9180333738E-01
          0                 3           1             4    7     1       0.5261276983E-04       4    7    1         0.2926585570E-02      0.6482369388E-02

    ------------------------------------------------
       NWT REQUIRED            3 OUTER ITERATIONS 
       AND A TOTAL OF          5 INNER ITERATIONS.
    ------------------------------------------------

 NO OUTPUT CONTROL FOR STRESS PERIOD    6   TIME STEP   23
 
 SOLVING FOR HEAD 
                                                   Max.-Head-Change                         Max.-Flux-Residual
  Residual-Control   Outer-Iter.   Inner-Iter.     Column Row Layer    Maximum-Head-Change  Column Row Layer    Maximum-Flux-Residual          L2-NORM 
          0                 1           2             4    7     1       0.7845056027E-02       4    7    1         0.4130171205E+00      0.1170436178E+01
          0                 2           2             4    7     1      -0.7631107248E-03       4    7    1        -0.4130175984E-01      0.8985833517E-01
          0                 3           1             4    7     1       0.5196500479E-04       4    7    1         0.2891123980E-02      0.6364317829E-02

    ------------------------------------------------
       NWT REQUIRED            3 OUTER ITERATIONS 
       AND A TOTAL OF          5 INNER ITERATIONS.
    ------------------------------------------------

 NO OUTPUT CONTROL FOR STRESS PERIOD    6   TIME STEP   24
 
 SOLVING FOR HEAD 
                                                   Max.-Head-Change                         Max.-Flux-Residual
  Residual-Control   Outer-Iter.   Inner-Iter.     Column Row Layer    Maximum-Head-Change  Column Row Layer    Maximum-Flux-Residual          L2-NORM 
          0                 1           2             4    7     1       0.7747252892E-02       4    7    1         0.4079428252E+00      0.1147548316E+01
          0                 2           2             4    7     1      -0.7535971369E-03       4    7    1        -0.4079433110E-01      0.8822509856E-01
          0                 3           1             4    7     1       0.5131715596E-04       4    7    1         0.2855603967E-02      0.6251988440E-02

    ------------------------------------------------
       NWT REQUIRED            3 OUTER ITERATIONS 
       AND A TOTAL OF          5 INNER ITERATIONS.
    ------------------------------------------------

 NO OUTPUT CONTROL FOR STRESS PERIOD    6   TIME STEP   25
 
 SOLVING FOR HEAD 
                                                   Max.-Head-Change                         Max.-Flux-Residual
  Residual-Control   Outer-Iter.   Inner-Iter.     Column Row Layer    Maximum-Head-Change  Column Row Layer    Maximum-Flux-Residual          L2-NORM 
          0                 1           2             4    7     1       0.7649307729E-02       4    7    1         0.4028531364E+00      0.1114067482E+01
          0                 2           2             4    7     1      -0.7440696163E-03       4    7    1        -0.4028536284E-01      0.1000879114E+00
          0                 3           1             4    7     1       0.5066837796E-04       4    7    1         0.2819976154E-02      0.6156465839E-02

    ------------------------------------------------
       NWT REQUIRED            3 OUTER ITERATIONS 
       AND A TOTAL OF          5 INNER ITERATIONS.
    ------------------------------------------------

 NO OUTPUT CONTROL FOR STRESS PERIOD    6   TIME STEP   26
 
 SOLVING FOR HEAD 
                                                   Max.-Head-Change                         Max.-Flux-Residual
  Residual-Control   Outer-Iter.   Inner-Iter.     Column Row Layer    Maximum-Head-Change  Column Row Layer    Maximum-Flux-Residual          L2-NORM 
          0                 1           2             4   13     1      -0.1873470121E-01       4   13    1        -0.1080939305E+01      0.2084323920E+01
          0                 2           2             4   13     1       0.2184315499E-01       4   13    1         0.1301911567E+01      0.2256714338E+01
          0                 3           2             4   13     1      -0.1141319218E-02       4   13    1        -0.7012396716E-01      0.1094680333E+00
          0                 4           1             4   13     1      -0.6043876392E-04       4   13    1        -0.3709075733E-02      0.6146604968E-02

    ------------------------------------------------
       NWT REQUIRED            4 OUTER ITERATIONS 
       AND A TOTAL OF          7 INNER ITERATIONS.
    ------------------------------------------------

 NO OUTPUT CONTROL FOR STRESS PERIOD    6   TIME STEP   27
 
 SOLVING FOR HEAD 
                                                   Max.-Head-Change                         Max.-Flux-Residual
  Residual-Control   Outer-Iter.   Inner-Iter.     Column Row Layer    Maximum-Head-Change  Column Row Layer    Maximum-Flux-Residual          L2-NORM 
          0                 1           2             4   13     1      -0.1888978329E-01       4   13    1        -0.1089821917E+01      0.2094688321E+01
          0                 2           2             4   13     1       0.2184534118E-01       4   13    1         0.1302040867E+01      0.2257051465E+01
          0                 3           2             4   13     1      -0.1155776228E-02       4   13    1        -0.7100593283E-01      0.1113606220E+00
          0                 4           1             4   13     1      -0.6125972890E-04       4   13    1        -0.3759218681E-02      0.6258862728E-02

    ------------------------------------------------
       NWT REQUIRED            4 OUTER ITERATIONS 
       AND A TOTAL OF          7 INNER ITERATIONS.
    ------------------------------------------------

 NO OUTPUT CONTROL FOR STRESS PERIOD    6   TIME STEP   28
 
 SOLVING FOR HEAD 
                                                   Max.-Head-Change                         Max.-Flux-Residual
  Residual-Control   Outer-Iter.   Inner-Iter.     Column Row Layer    Maximum-Head-Change  Column Row Layer    Maximum-Flux-Residual          L2-NORM 
          0                 1           2             4   13     1      -0.1902807719E-01       4   13    1        -0.1097736642E+01      0.2103941066E+01
          0                 2           2             4   13     1       0.2184697903E-01       4   13    1         0.1302137283E+01      0.2257342650E+01
          0                 3           2             4   13     1      -0.1168688110E-02       4   13    1        -0.7179320594E-01      0.1130811155E+00
          0                 4           1             4   13     1      -0.6193809379E-04       4   13    1        -0.3800603092E-02      0.6357893762E-02

    ------------------------------------------------
       NWT REQUIRED            4 OUTER ITERATIONS 
       AND A TOTAL OF          7 INNER ITERATIONS.
    ------------------------------------------------

 NO OUTPUT CONTROL FOR STRESS PERIOD    6   TIME STEP   29
 
 SOLVING FOR HEAD 
                                                   Max.-Head-Change                         Max.-Flux-Residual
  Residual-Control   Outer-Iter.   Inner-Iter.     Column Row Layer    Maximum-Head-Change  Column Row Layer    Maximum-Flux-Residual          L2-NORM 
          0                 1           2             4   13     1      -0.2086689142E-01       4   13    1        -0.1202759912E+01      0.2256803725E+01
          0                 2           2             4   13     1       0.2191298919E-01       4   13    1         0.1305348855E+01      0.2262792412E+01
          0                 3           2             4   13     1      -0.1338568061E-02       4   13    1        -0.8214679370E-01      0.1314797176E+00
          0                 4           1             4   13     1      -0.7107540705E-04       4   13    1        -0.4356948484E-02      0.7411770471E-02

    ------------------------------------------------
       NWT REQUIRED            4 OUTER ITERATIONS 
       AND A TOTAL OF          7 INNER ITERATIONS.
    ------------------------------------------------

 NO OUTPUT CONTROL FOR STRESS PERIOD    6   TIME STEP   30



 STREAM LISTING     PERIOD      6   STEP       30

 LAYER ROW COL. STREAM  RCH.  FLOW INTO     FLOW TO   FLOW OUT OF   OVRLND.     DIRECT     STREAM       STREAM     STREAM     STREAM   STREAMBED  STREAMBED
                SEG.NO.  NO.  STRM. RCH.    AQUIFER    STRM. RCH.    RUNOFF     PRECIP       ET          HEAD       DEPTH      WIDTH   CONDCTNC.   GRADIENT

   1    1    1     1     1    9.4178E+01  4.6332E-01   9.3715E+01  0.000E+00  0.000E+00  0.000E+00  1.09483E+03  1.778E+00  2.155E+01  9.697E-02  1.593E+00
   1    2    2     1     2    9.3715E+01  7.1888E-01   9.2996E+01  0.000E+00  0.000E+00  0.000E+00  1.08983E+03  1.776E+00  2.150E+01  1.505E-01  1.592E+00
   1    3    3     1     3    9.2996E+01  6.1439E-01   9.2382E+01  0.000E+00  0.000E+00  0.000E+00  1.08419E+03  1.773E+00  2.145E+01  1.287E-01  1.591E+00
   1    3    4     1     4    9.2382E+01  5.6684E-01   9.1815E+01  0.000E+00  0.000E+00  0.000E+00  1.07918E+03  1.771E+00  2.141E+01  1.188E-01  1.590E+00
   1    4    5     2     1    8.9815E+01  4.3659E-01   8.9378E+01  0.000E+00  0.000E+00  0.000E+00  1.07453E+03  2.597E+00  1.200E+01  7.800E-02  1.866E+00
   1    5    6     2     2    8.9378E+01  3.3543E-01   8.9043E+01  0.000E+00  0.000E+00  0.000E+00  1.06910E+03  2.591E+00  1.200E+01  6.000E-02  1.864E+00
   1    6    6     2     3    8.9043E+01  3.3508E-01   8.8708E+01  0.000E+00  0.000E+00  0.000E+00  1.06438E+03  2.585E+00  1.200E+01  6.000E-02  1.862E+00
   1    7    6     2     4    8.8708E+01  3.3473E-01   8.8373E+01  0.000E+00  0.000E+00  0.000E+00  1.05965E+03  2.579E+00  1.200E+01  6.000E-02  1.860E+00
   1    8    6     2     5    8.8373E+01  3.3438E-01   8.8038E+01  0.000E+00  0.000E+00  0.000E+00  1.05493E+03  2.573E+00  1.200E+01  6.000E-02  1.858E+00
   1    3    5     3     1    2.0000E+00  2.8252E-01   1.7175E+00  0.000E+00  0.000E+00  0.000E+00  1.07555E+03  1.909E+00  9.636E+00  7.227E-02  1.955E+00
   1    3    6     3     2    1.7175E+00  2.4905E-01   1.4684E+00  0.000E+00  0.000E+00  0.000E+00  1.07264E+03  1.727E+00  8.909E+00  6.682E-02  1.864E+00
   1    3    7     3     3    1.4684E+00  1.9718E-01   1.2712E+00  0.000E+00  0.000E+00  0.000E+00  1.06987E+03  1.555E+00  8.218E+00  5.547E-02  1.777E+00
   1    4    8     3     4    1.2712E+00  2.2567E-01   1.0456E+00  0.000E+00  0.000E+00  0.000E+00  1.06682E+03  1.364E+00  7.455E+00  6.709E-02  1.682E+00
   1    5    8     3     5    1.0456E+00  1.5790E-01   8.8768E-01  0.000E+00  0.000E+00  0.000E+00  1.06362E+03  1.164E+00  6.655E+00  4.991E-02  1.582E+00
   1    6    8     3     6    8.8768E-01  5.5980E-02   8.3170E-01  0.000E+00  0.000E+00  0.000E+00  1.06158E+03  1.036E+00  6.145E+00  1.844E-02  1.518E+00
   1    5   10     4     1    1.0000E+01  9.0919E-02   9.9091E+00  0.000E+00  0.000E+00  0.000E+00  1.07836E+03  6.368E-01  1.000E+01  2.500E-02  1.212E+00
   1    5    9     4     2    9.9091E+00  1.8158E-01   9.7275E+00  0.000E+00  0.000E+00  0.000E+00  1.07154E+03  6.315E-01  1.000E+01  5.000E-02  1.211E+00
   1    6    8     4     3    9.7275E+00  1.2689E-01   9.6006E+00  0.000E+00  0.000E+00  0.000E+00  1.06381E+03  6.256E-01  1.000E+01  3.500E-02  1.209E+00
   1    6    8     5     1    1.0432E+01  2.2686E-01   1.0205E+01  0.000E+00  0.000E+00  0.000E+00  1.05868E+03  6.790E-01  1.542E+01  6.166E-02  1.226E+00
   1    7    7     5     2    1.0205E+01  2.7894E-01   9.9265E+00  0.000E+00  0.000E+00  0.000E+00  1.05417E+03  6.732E-01  1.519E+01  7.594E-02  1.224E+00
   1    8    7     5     3    9.9265E+00  1.9221E-01   9.7343E+00  0.000E+00  0.000E+00  0.000E+00  1.04992E+03  6.676E-01  1.497E+01  5.241E-02  1.223E+00
   1    8    6     5     4    9.7343E+00  1.3577E-01   9.5985E+00  0.000E+00  0.000E+00  0.000E+00  1.04691E+03  6.637E-01  1.482E+01  3.706E-02  1.221E+00
   1    9    6     6     1    9.7637E+01  3.4574E-01   9.7291E+01  0.000E+00  0.000E+00  0.000E+00  1.04549E+03  2.762E+00  1.200E+01  6.000E-02  1.921E+00
   1   10    7     6     2    9.7291E+01  3.4539E-01   9.6946E+01  0.000E+00  0.000E+00  0.000E+00  1.04094E+03  2.756E+00  1.200E+01  6.000E-02  1.919E+00
   1   11    7     6     3    9.6946E+01  3.4503E-01   9.6601E+01  0.000E+00  0.000E+00  0.000E+00  1.03639E+03  2.751E+00  1.200E+01  6.000E-02  1.917E+00
   1   12    7     6     4    9.6601E+01  3.4468E-01   9.6256E+01  0.000E+00  0.000E+00  0.000E+00  1.03184E+03  2.745E+00  1.200E+01  6.000E-02  1.915E+00
   1   13    7     6     5    9.6256E+01  3.5685E-02   9.6220E+01  0.000E+00  0.000E+00  0.000E+00  1.02865E+03  2.741E+00  1.200E+01  2.400E-02  4.956E-01
   1   14    9     7     1    1.5000E+02  1.3353E+00   1.4866E+02  0.000E+00  0.000E+00  0.000E+00  1.03987E+03  2.288E+00  5.529E+01  5.593E-01  7.958E-01
   1   13    8     7     2    1.4866E+02  1.8187E+00   1.4685E+02  0.000E+00  0.000E+00  0.000E+00  1.03478E+03  2.279E+00  5.526E+01  6.148E-01  9.861E-01
   1   13    7     7     3    1.4685E+02  1.4109E+00   1.4544E+02  0.000E+00  0.000E+00  0.000E+00  1.02969E+03  2.271E+00  5.522E+01  5.585E-01  8.421E-01
   1   13    6     8     1    2.4166E+02  1.1463E+00   2.4051E+02  0.000E+00  0.000E+00  0.000E+00  1.02524E+03  3.365E+00  4.880E+01  4.973E-01  7.684E-01
   1   13    5     8     2    2.4051E+02  3.0598E-01   2.4020E+02  0.000E+00  0.000E+00  0.000E+00  1.01899E+03  3.362E+00  4.874E+01  4.967E-01  2.053E-01
   1   13    4     8     3    2.4020E+02 -2.1523E+00   2.4236E+02  0.000E+00  0.000E+00  0.000E+00  1.01274E+03  3.366E+00  4.881E+01  4.974E+00 -1.442E-01
   1   13    3     8     4    2.4236E+02 -3.4141E+00   2.4577E+02  0.000E+00  0.000E+00  0.000E+00  1.00651E+03  3.381E+00  4.902E+01  4.996E+00 -2.278E-01
   1   13    2     8     5    2.4577E+02 -2.3748E+00   2.4814E+02  0.000E+00  0.000E+00  0.000E+00  1.00027E+03  3.396E+00  4.924E+01  5.018E+00 -1.578E-01
   1   13    1     8     6    2.4814E+02 -1.6842E+00   2.4983E+02  0.000E+00  0.000E+00  0.000E+00  9.95281E+02  3.406E+00  4.939E+01  3.020E+00 -1.859E-01
   1    8    6     9     1    0.0000E+00  0.0000E+00   0.0000E+00  0.000E+00  0.000E+00  0.000E+00  1.07875E+03  0.000E+00  4.000E+00  0.000E+00  1.000E+00
   1    8    5     9     2    0.0000E+00  0.0000E+00   0.0000E+00  0.000E+00  0.000E+00  0.000E+00  1.07825E+03  0.000E+00  4.000E+00  0.000E+00  1.000E+00





UNSATURATED ZONE PACKAGE VOLUMETRIC BUDGET FOR  TIME STEP    30 STRESS PERIOD    6
  ------------------------------------------------------------------------------



     CUMULATIVE VOLUMES      L**3       RATES FOR THIS TIME STEP      L**3/T
     ------------------                 ------------------------

           IN:                                      IN:
           ---                                      ---
        INFILTRATION =    60270409.8750          INFILTRATION =           0.8475

          OUT:                                     OUT:
          ----                                     ----
              UZF ET =    11461353.7856                UZF ET =           2.9025
        UZF RECHARGE =     6070451.4817          UZF RECHARGE =           0.4271

            IN - OUT =    42738604.6077              IN - OUT =          -2.4821

          STORAGE:                                 STORAGE:
          --------                                 --------
      STORAGE CHANGE =    42754056.6992        STORAGE CHANGE =          -2.4821

 PERCENT DISCREPANCY IS DIFFERENCE BETWEEN IN-OUT MINUS CHANGE IN STORAGE
 DIVIDED BY THE AVERAGE OF IN AND OUT TIMES 100

 PERCENT DISCREPANCY =          -0.01     PERCENT DISCREPANCY =           0.00






1
  VOLUMETRIC BUDGET FOR ENTIRE MODEL AT END OF TIME STEP   30, STRESS PERIOD   6
  ------------------------------------------------------------------------------

     CUMULATIVE VOLUMES      L**3       RATES FOR THIS TIME STEP      L**3/T
     ------------------                 ------------------------

           IN:                                      IN:
           ---                                      ---
               AWU WELLS =    32757524.0000                 AWU WELLS =           0.0000
      DIVERSION SEGMENTS =    16303183.0000        DIVERSION SEGMENTS =           0.0000
           GW IRRIGATION =           0.0000             GW IRRIGATION =           0.0000
           SW IRRIGATION =           0.0000             SW IRRIGATION =           0.0000
        SYSTEM LOSSES GW =           0.0000          SYSTEM LOSSES GW =           0.0000
        SYSTEM LOSSES SW =           0.0000          SYSTEM LOSSES SW =           0.0000

                TOTAL IN =    49060708.0000                  TOTAL IN =           0.0000

          OUT:                                     OUT:
          ----                                     ----
               AWU WELLS =           0.0000                 AWU WELLS =           0.0000
      DIVERSION SEGMENTS =           0.0000        DIVERSION SEGMENTS =           0.0000
           GW IRRIGATION =    32757524.0000             GW IRRIGATION =           0.0000
           SW IRRIGATION =    16303508.0000             SW IRRIGATION =           0.0000
        SYSTEM LOSSES GW =           0.0000          SYSTEM LOSSES GW =           0.0000
        SYSTEM LOSSES SW =           0.0000          SYSTEM LOSSES SW =           0.0000

               TOTAL OUT =    49061032.0000                 TOTAL OUT =           0.0000

                IN - OUT =        -324.0000                  IN - OUT =           0.0000

     PERCENT DISCREPANCY =          -0.00         PERCENT DISCREPANCY =           0.00



1
  VOLUMETRIC BUDGET FOR ENTIRE MODEL AT END OF TIME STEP   30, STRESS PERIOD   6
  ------------------------------------------------------------------------------

     CUMULATIVE VOLUMES      L**3       RATES FOR THIS TIME STEP      L**3/T
     ------------------                 ------------------------

           IN:                                      IN:
           ---                                      ---
             STORAGE     =    53868064.0000               STORAGE     =           1.0855
       CONSTANT HEAD     =           0.0000         CONSTANT HEAD     =           0.0000
     HEAD DEP BOUNDS     =     3779514.7500       HEAD DEP BOUNDS     =           0.2857
      STREAM LEAKAGE     =   167640672.0000        STREAM LEAKAGE     =          13.9749
        UZF RECHARGE     =     6070449.0000          UZF RECHARGE     =           0.4271
               GW ET     =           0.0000                 GW ET     =           0.0000
     SURFACE LEAKAGE     =           0.0000       SURFACE LEAKAGE     =           0.0000
           AWU WELLS     =           0.0000             AWU WELLS     =           0.0000

                TOTAL IN =   231358704.0000                  TOTAL IN =          15.7733

          OUT:                                     OUT:
          ----                                     ----
             STORAGE     =    58264532.0000               STORAGE     =           4.7649
       CONSTANT HEAD     =           0.0000         CONSTANT HEAD     =           0.0000
     HEAD DEP BOUNDS     =     3868969.7500       HEAD DEP BOUNDS     =           0.2979
      STREAM LEAKAGE     =   132205392.0000        STREAM LEAKAGE     =           9.6255
        UZF RECHARGE     =           0.0000          UZF RECHARGE     =           0.0000
               GW ET     =     4270470.5000                 GW ET     =           1.0857
     SURFACE LEAKAGE     =           0.0000       SURFACE LEAKAGE     =           0.0000
           AWU WELLS     =    32757524.0000             AWU WELLS     =           0.0000

               TOTAL OUT =   231366880.0000                 TOTAL OUT =          15.7739

                IN - OUT =       -8176.0000                  IN - OUT =      -5.9319E-04

     PERCENT DISCREPANCY =          -0.00         PERCENT DISCREPANCY =          -0.00






         TIME SUMMARY AT END OF TIME STEP   30 IN STRESS PERIOD    6
                    SECONDS     MINUTES      HOURS       DAYS        YEARS
                    -----------------------------------------------------------
   TIME STEP LENGTH  87600.      1460.0      24.333      1.0139     2.77588E-03
 STRESS PERIOD TIME 2.62800E+06  43800.      730.00      30.417     8.32763E-02
         TOTAL TIME 1.32264E+07 2.20440E+05  3674.0      153.08     0.41912    
1
1
                            STRESS PERIOD NO.    7, LENGTH =   2628000.    
                            -----------------------------------------------

                              NUMBER OF TIME STEPS =    30

                               MULTIPLIER FOR DELT =     1.000

                            INITIAL TIME STEP SIZE =   87600.00    

 REUSING NON-PARAMETER GHB CELLS FROM LAST STRESS PERIOD

      2 GHB CELLS

 REUSING STREAM SEGMENT DATA FROM LAST STRESS PERIOD



            AREAL INFILTRATION RATE
 READING ON UNIT   19 WITH FORMAT: (10F4.0)            

            1           2           3           4           5           6           7           8           9          10
 ........................................................................................................................
   1   1.0000E-10  2.0000E-10   0.000       0.000       0.000       0.000       0.000       0.000       0.000       0.000    
   2   2.0000E-10  1.0000E-10  2.0000E-10   0.000       0.000      8.0000E-10  8.0000E-10  5.0000E-10   0.000       0.000    
   3    0.000      5.0000E-10  1.0000E-10  1.0000E-10  8.0000E-10  8.0000E-10  5.0000E-10  5.0000E-10   0.000       0.000    
   4   8.0000E-10  5.0000E-10  1.0000E-10  1.0000E-10  1.0000E-10  1.0000E-10  1.0000E-10  1.0000E-10  2.0000E-10   0.000    
   5   8.0000E-10  5.0000E-10  1.0000E-10  1.0000E-10  1.0000E-10  1.0000E-10  1.0000E-10  1.0000E-10  1.0000E-10  1.0000E-10
   6   8.0000E-10  5.0000E-10  5.0000E-10  2.0000E-10  2.0000E-10  1.0000E-10  1.0000E-10  1.0000E-10  1.0000E-10  5.0000E-10
   7   8.0000E-10  5.0000E-10  5.0000E-10  2.0000E-10  2.0000E-10  1.0000E-10  1.0000E-10  2.0000E-10  2.0000E-10   0.000    
   8    0.000      5.0000E-10  5.0000E-10  2.0000E-10  2.0000E-10  1.0000E-10  1.0000E-10  2.0000E-10  5.0000E-10   0.000    
   9    0.000      5.0000E-10  5.0000E-10  2.0000E-10  2.0000E-10  1.0000E-10  1.0000E-10  2.0000E-10  5.0000E-10   0.000    
  10    0.000      5.0000E-10  5.0000E-10  2.0000E-10  2.0000E-10  1.0000E-10  1.0000E-10  2.0000E-10  5.0000E-10  8.0000E-10
  11    0.000      1.0000E-10  1.0000E-10  1.0000E-10  1.0000E-10  1.0000E-10  1.0000E-10  2.0000E-10  5.0000E-10   0.000    
  12   1.0000E-10  1.0000E-10  1.0000E-10  1.0000E-10  1.0000E-10  1.0000E-10  1.0000E-10  1.0000E-10  2.0000E-10   0.000    
  13   1.0000E-10  1.0000E-10  2.0000E-10  2.0000E-10  2.0000E-10  2.0000E-10  2.0000E-10  1.0000E-10  1.0000E-10   0.000    
  14    0.000      2.0000E-10  5.0000E-10  5.0000E-10  5.0000E-10  5.0000E-10  5.0000E-10  2.0000E-10  1.0000E-10   0.000    
  15    0.000       0.000      8.0000E-10  8.0000E-10  8.0000E-10  8.0000E-10   0.000       0.000       0.000       0.000    

                  ET RATE =  3.000000E-08

 USING ET EXTINCTION DEPTH FROM PREVIOUS STRESS PERIOD. CURRENT PERIOD IS:       7

 USING EXTINCTION WATER CONTENT FROM PREVIOUS STRESS PERIOD. CURRENT PERIOD IS:       7

 PROCESSING AWU STRESS PERIOD DATA

 READING AWU STRESS PERIOD DATA

 READING IRRIGATION STREAM

 READING IRRIGATION WELL

 READING SUPPLEMENTAL WEL

 END PROCESSING AWU STRESS PERIOD DATA OPTIONS
 
 SOLVING FOR HEAD 
                                                   Max.-Head-Change                         Max.-Flux-Residual
  Residual-Control   Outer-Iter.   Inner-Iter.     Column Row Layer    Maximum-Head-Change  Column Row Layer    Maximum-Flux-Residual          L2-NORM 
          0                 1           2             4   13     1      -0.3277854869E-01       4   13    1        -0.1883533847E+01      0.3367755173E+01
          0                 2           2             4   13     1       0.2283061990E-01       4   13    1         0.1359903526E+01      0.2355273310E+01
          0                 3           2             4   13     1      -0.1532022863E-02       4   13    1        -0.9384194117E-01      0.1578577050E+00
          0                 4           1             4   13     1       0.5942920314E-04       4   13    1         0.3742634825E-02      0.6008873433E-02

    ------------------------------------------------
       NWT REQUIRED            4 OUTER ITERATIONS 
       AND A TOTAL OF          7 INNER ITERATIONS.
    ------------------------------------------------

 NO OUTPUT CONTROL FOR STRESS PERIOD    7   TIME STEP    1
 
 SOLVING FOR HEAD 
                                                   Max.-Head-Change                         Max.-Flux-Residual
  Residual-Control   Outer-Iter.   Inner-Iter.     Column Row Layer    Maximum-Head-Change  Column Row Layer    Maximum-Flux-Residual          L2-NORM 
          0                 1           2             4   13     1      -0.3165702063E-01       4   13    1        -0.1818819518E+01      0.3279189620E+01
          0                 2           2             4   13     1       0.8986868633E-02       4   13    1         0.5325029335E+00      0.9209150015E+00
          0                 3           2             4   13     1      -0.6039148140E-03       4   13    1        -0.3679693813E-01      0.6205609288E-01
          0                 4           1             4   13     1       0.2344076484E-04       4   13    1         0.1468309555E-02      0.2380592412E-02

    ------------------------------------------------
       NWT REQUIRED            4 OUTER ITERATIONS 
       AND A TOTAL OF          7 INNER ITERATIONS.
    ------------------------------------------------

 NO OUTPUT CONTROL FOR STRESS PERIOD    7   TIME STEP    2
 
 SOLVING FOR HEAD 
                                                   Max.-Head-Change                         Max.-Flux-Residual
  Residual-Control   Outer-Iter.   Inner-Iter.     Column Row Layer    Maximum-Head-Change  Column Row Layer    Maximum-Flux-Residual          L2-NORM 
          0                 1           2             4   13     1      -0.2673032782E-01       4   13    1        -0.1536361895E+01      0.2851679107E+01
          0                 2           2             4   13     1       0.2004758092E-01       4   13    1         0.1194039173E+01      0.2072135009E+01
          0                 3           2             4   13     1      -0.1345048390E-02       4   13    1        -0.8238262030E-01      0.1388552800E+00
          0                 4           1             4   13     1       0.5218210110E-04       4   13    1         0.3286026430E-02      0.5284017938E-02

    ------------------------------------------------
       NWT REQUIRED            4 OUTER ITERATIONS 
       AND A TOTAL OF          7 INNER ITERATIONS.
    ------------------------------------------------

 NO OUTPUT CONTROL FOR STRESS PERIOD    7   TIME STEP    3
 
 SOLVING FOR HEAD 
                                                   Max.-Head-Change                         Max.-Flux-Residual
  Residual-Control   Outer-Iter.   Inner-Iter.     Column Row Layer    Maximum-Head-Change  Column Row Layer    Maximum-Flux-Residual          L2-NORM 
          0                 1           2             4   13     1      -0.7932918530E-02       4   13    1        -0.4566926413E+00      0.1269507329E+01
          0                 2           2             4   13     1       0.7635482170E-03       4   13    1         0.4514131390E-01      0.1137459096E+00
          0                 3           1             4   13     1      -0.5110213261E-04       4   13    1        -0.3107327503E-02      0.7868951902E-02

    ------------------------------------------------
       NWT REQUIRED            3 OUTER ITERATIONS 
       AND A TOTAL OF          5 INNER ITERATIONS.
    ------------------------------------------------

 NO OUTPUT CONTROL FOR STRESS PERIOD    7   TIME STEP    4
 
 SOLVING FOR HEAD 
                                                   Max.-Head-Change                         Max.-Flux-Residual
  Residual-Control   Outer-Iter.   Inner-Iter.     Column Row Layer    Maximum-Head-Change  Column Row Layer    Maximum-Flux-Residual          L2-NORM 
          0                 1           2             4   13     1      -0.7187051270E-02       4   13    1        -0.4134636715E+00      0.1217927801E+01
          0                 2           2             4   13     1       0.6916102390E-03       4   13    1         0.4086264654E-01      0.1083711792E+00
          0                 3           1             4   13     1      -0.4627925900E-04       4   13    1        -0.2812300797E-02      0.7512092652E-02

    ------------------------------------------------
       NWT REQUIRED            3 OUTER ITERATIONS 
       AND A TOTAL OF          5 INNER ITERATIONS.
    ------------------------------------------------

 OUTPUT CONTROL FOR STRESS PERIOD    7   TIME STEP    5
    PRINT BUDGET
    SAVE BUDGET
 UBDSV1 SAVING "         STORAGE" ON UNIT 102 AT TIME STEP  5, STRESS PERIOD   7
 UBDSV2 SAVING "   CONSTANT HEAD" ON UNIT 102 AT TIME STEP  5, STRESS PERIOD   7
 UBDSV1 SAVING "FLOW RIGHT FACE " ON UNIT 102 AT TIME STEP  5, STRESS PERIOD   7
 UBDSV1 SAVING "FLOW FRONT FACE " ON UNIT 102 AT TIME STEP  5, STRESS PERIOD   7

  HEAD DEP BOUNDS   PERIOD    7   STEP     5
 BOUNDARY      1   LAYER   1   ROW    13   COL     1   RATE   -0.296280    
 BOUNDARY      2   LAYER   1   ROW    14   COL     9   RATE    0.285721    



 STREAM LISTING     PERIOD      7   STEP        5

 LAYER ROW COL. STREAM  RCH.  FLOW INTO     FLOW TO   FLOW OUT OF   OVRLND.     DIRECT     STREAM       STREAM     STREAM     STREAM   STREAMBED  STREAMBED
                SEG.NO.  NO.  STRM. RCH.    AQUIFER    STRM. RCH.    RUNOFF     PRECIP       ET          HEAD       DEPTH      WIDTH   CONDCTNC.   GRADIENT

   1    1    1     1     1    8.3000E+01  4.4019E-01   8.2560E+01  0.000E+00  0.000E+00  0.000E+00  1.09478E+03  1.734E+00  2.066E+01  9.299E-02  1.578E+00
   1    2    2     1     2    8.2560E+01  6.8286E-01   8.1877E+01  0.000E+00  0.000E+00  0.000E+00  1.08979E+03  1.731E+00  2.062E+01  1.443E-01  1.577E+00
   1    3    3     1     3    8.1877E+01  5.8348E-01   8.1293E+01  0.000E+00  0.000E+00  0.000E+00  1.08415E+03  1.729E+00  2.057E+01  1.234E-01  1.576E+00
   1    3    4     1     4    8.1293E+01  5.3822E-01   8.0755E+01  0.000E+00  0.000E+00  0.000E+00  1.07913E+03  1.726E+00  2.052E+01  1.139E-01  1.575E+00
   1    4    5     2     1    7.8755E+01  4.2120E-01   7.8334E+01  0.000E+00  0.000E+00  0.000E+00  1.07433E+03  2.400E+00  1.200E+01  7.800E-02  1.800E+00
   1    5    6     2     2    7.8334E+01  3.2359E-01   7.8010E+01  0.000E+00  0.000E+00  0.000E+00  1.06890E+03  2.393E+00  1.200E+01  6.000E-02  1.798E+00
   1    6    6     2     3    7.8010E+01  3.2323E-01   7.7687E+01  0.000E+00  0.000E+00  0.000E+00  1.06418E+03  2.387E+00  1.200E+01  6.000E-02  1.796E+00
   1    7    6     2     4    7.7687E+01  3.2288E-01   7.7364E+01  0.000E+00  0.000E+00  0.000E+00  1.05946E+03  2.381E+00  1.200E+01  6.000E-02  1.794E+00
   1    8    6     2     5    7.7364E+01  3.2252E-01   7.7042E+01  0.000E+00  0.000E+00  0.000E+00  1.05473E+03  2.375E+00  1.200E+01  6.000E-02  1.792E+00
   1    3    5     3     1    2.0000E+00  2.8252E-01   1.7175E+00  0.000E+00  0.000E+00  0.000E+00  1.07555E+03  1.909E+00  9.636E+00  7.227E-02  1.955E+00
   1    3    6     3     2    1.7175E+00  2.4905E-01   1.4684E+00  0.000E+00  0.000E+00  0.000E+00  1.07264E+03  1.727E+00  8.909E+00  6.682E-02  1.864E+00
   1    3    7     3     3    1.4684E+00  1.9718E-01   1.2712E+00  0.000E+00  0.000E+00  0.000E+00  1.06987E+03  1.555E+00  8.218E+00  5.547E-02  1.777E+00
   1    4    8     3     4    1.2712E+00  2.2567E-01   1.0456E+00  0.000E+00  0.000E+00  0.000E+00  1.06682E+03  1.364E+00  7.455E+00  6.709E-02  1.682E+00
   1    5    8     3     5    1.0456E+00  1.5790E-01   8.8768E-01  0.000E+00  0.000E+00  0.000E+00  1.06362E+03  1.164E+00  6.655E+00  4.991E-02  1.582E+00
   1    6    8     3     6    8.8768E-01  5.5980E-02   8.3170E-01  0.000E+00  0.000E+00  0.000E+00  1.06158E+03  1.036E+00  6.145E+00  1.844E-02  1.518E+00
   1    5   10     4     1    1.0000E+01  9.0919E-02   9.9091E+00  0.000E+00  0.000E+00  0.000E+00  1.07836E+03  6.368E-01  1.000E+01  2.500E-02  1.212E+00
   1    5    9     4     2    9.9091E+00  1.8158E-01   9.7275E+00  0.000E+00  0.000E+00  0.000E+00  1.07154E+03  6.315E-01  1.000E+01  5.000E-02  1.211E+00
   1    6    8     4     3    9.7275E+00  1.2689E-01   9.6006E+00  0.000E+00  0.000E+00  0.000E+00  1.06381E+03  6.256E-01  1.000E+01  3.500E-02  1.209E+00
   1    6    8     5     1    1.0432E+01  2.2686E-01   1.0205E+01  0.000E+00  0.000E+00  0.000E+00  1.05868E+03  6.790E-01  1.542E+01  6.166E-02  1.226E+00
   1    7    7     5     2    1.0205E+01  2.7894E-01   9.9265E+00  0.000E+00  0.000E+00  0.000E+00  1.05417E+03  6.732E-01  1.519E+01  7.594E-02  1.224E+00
   1    8    7     5     3    9.9265E+00  1.9221E-01   9.7343E+00  0.000E+00  0.000E+00  0.000E+00  1.04992E+03  6.676E-01  1.497E+01  5.241E-02  1.223E+00
   1    8    6     5     4    9.7343E+00  1.3577E-01   9.5985E+00  0.000E+00  0.000E+00  0.000E+00  1.04691E+03  6.637E-01  1.482E+01  3.706E-02  1.221E+00
   1    9    6     6     1    8.6640E+01  3.3426E-01   8.6306E+01  0.000E+00  0.000E+00  0.000E+00  1.04530E+03  2.571E+00  1.200E+01  6.000E-02  1.857E+00
   1   10    7     6     2    8.6306E+01  3.3390E-01   8.5972E+01  0.000E+00  0.000E+00  0.000E+00  1.04075E+03  2.565E+00  1.200E+01  6.000E-02  1.855E+00
   1   11    7     6     3    8.5972E+01  3.3354E-01   8.5639E+01  0.000E+00  0.000E+00  0.000E+00  1.03620E+03  2.559E+00  1.200E+01  6.000E-02  1.853E+00
   1   12    7     6     4    8.5639E+01  3.3319E-01   8.5305E+01  0.000E+00  0.000E+00  0.000E+00  1.03164E+03  2.553E+00  1.200E+01  6.000E-02  1.851E+00
   1   13    7     6     5    8.5305E+01  3.1149E-02   8.5274E+01  0.000E+00  0.000E+00  0.000E+00  1.02846E+03  2.550E+00  1.200E+01  2.400E-02  4.326E-01
   1   14    9     7     1    1.5000E+02  1.3353E+00   1.4866E+02  0.000E+00  0.000E+00  0.000E+00  1.03987E+03  2.288E+00  5.529E+01  5.593E-01  7.958E-01
   1   13    8     7     2    1.4866E+02  1.8181E+00   1.4685E+02  0.000E+00  0.000E+00  0.000E+00  1.03478E+03  2.279E+00  5.526E+01  6.148E-01  9.857E-01
   1   13    7     7     3    1.4685E+02  1.4124E+00   1.4543E+02  0.000E+00  0.000E+00  0.000E+00  1.02969E+03  2.271E+00  5.522E+01  5.585E-01  8.430E-01
   1   13    6     8     1    2.3071E+02  1.1041E+00   2.2960E+02  0.000E+00  0.000E+00  0.000E+00  1.02518E+03  3.307E+00  4.796E+01  4.887E-01  7.531E-01
   1   13    5     8     2    2.2960E+02  2.8669E-01   2.2932E+02  0.000E+00  0.000E+00  0.000E+00  1.01893E+03  3.304E+00  4.790E+01  4.881E-01  1.958E-01
   1   13    4     8     3    2.2932E+02 -2.1224E+00   2.3144E+02  0.000E+00  0.000E+00  0.000E+00  1.01268E+03  3.309E+00  4.797E+01  4.889E+00 -1.447E-01
   1   13    3     8     4    2.3144E+02 -3.3734E+00   2.3481E+02  0.000E+00  0.000E+00  0.000E+00  1.00645E+03  3.323E+00  4.819E+01  4.911E+00 -2.290E-01
   1   13    2     8     5    2.3481E+02 -2.4169E+00   2.3723E+02  0.000E+00  0.000E+00  0.000E+00  1.00021E+03  3.339E+00  4.841E+01  4.933E+00 -1.633E-01
   1   13    1     8     6    2.3723E+02 -1.6992E+00   2.3893E+02  0.000E+00  0.000E+00  0.000E+00  9.95225E+02  3.350E+00  4.857E+01  2.970E+00 -1.907E-01
   1    8    6     9     1    0.0000E+00  0.0000E+00   0.0000E+00  0.000E+00  0.000E+00  0.000E+00  1.07875E+03  0.000E+00  4.000E+00  0.000E+00  1.000E+00
   1    8    5     9     2    0.0000E+00  0.0000E+00   0.0000E+00  0.000E+00  0.000E+00  0.000E+00  1.07825E+03  0.000E+00  4.000E+00  0.000E+00  1.000E+00



 UBDSV3 SAVING "           GW ET" ON UNIT  61 AT TIME STEP  5, STRESS PERIOD   7
 UBDSV3 SAVING "    UZF RECHARGE" ON UNIT  61 AT TIME STEP  5, STRESS PERIOD   7
 UBDSV3 SAVING " SURFACE LEAKAGE" ON UNIT  61 AT TIME STEP  5, STRESS PERIOD   7
 UBDSV3 SAVING "       HORT+DUNN" ON UNIT  61 AT TIME STEP  5, STRESS PERIOD   7
 UBDSV3 SAVING "  STORAGE CHANGE" ON UNIT  61 AT TIME STEP  5, STRESS PERIOD   7


UNSATURATED ZONE PACKAGE VOLUMETRIC BUDGET FOR  TIME STEP     5 STRESS PERIOD    7
  ------------------------------------------------------------------------------



     CUMULATIVE VOLUMES      L**3       RATES FOR THIS TIME STEP      L**3/T
     ------------------                 ------------------------

           IN:                                      IN:
           ---                                      ---
        INFILTRATION =    63977522.3229          INFILTRATION =           0.8475

          OUT:                                     OUT:
          ----                                     ----
              UZF ET =    14689269.2177                UZF ET =           7.0550
        UZF RECHARGE =     6221054.4826          UZF RECHARGE =           0.3385

            IN - OUT =    43067198.6226              IN - OUT =          -6.5460

          STORAGE:                                 STORAGE:
          --------                                 --------
      STORAGE CHANGE =    43084516.3271        STORAGE CHANGE =          -6.5460

 PERCENT DISCREPANCY IS DIFFERENCE BETWEEN IN-OUT MINUS CHANGE IN STORAGE
 DIVIDED BY THE AVERAGE OF IN AND OUT TIMES 100

 PERCENT DISCREPANCY =          -0.01     PERCENT DISCREPANCY =           0.00






 

            AWU WELLS     PERIOD    7   STEP   5
 AWU WELL      1   LAYER   1   ROW     6   COL     4   RATE     0.00000    
 AWU WELL      2   LAYER   1   ROW     6   COL     5   RATE     0.00000    
 AWU WELL      3   LAYER   1   ROW     7   COL     4   RATE     0.00000    
 AWU WELL      4   LAYER   1   ROW     7   COL     5   RATE     0.00000    
 AWU WELL      5   LAYER   1   ROW     8   COL     4   RATE     0.00000    
 AWU WELL      6   LAYER   1   ROW     8   COL     5   RATE     0.00000    
 
 

   DIVERSION SEGMENTS     PERIOD    7   STEP   5
 SEGMENT      9   RATE     0.00000    
 
 

        SW IRRIGATION     PERIOD    7   STEP   5
 SEGMENT      9   ROW     6   COL     4   RATE     0.00000    
 SEGMENT      9   ROW     6   COL     5   RATE     0.00000    
 SEGMENT      9   ROW     7   COL     4   RATE     0.00000    
 SEGMENT      9   ROW     7   COL     5   RATE     0.00000    
 SEGMENT      9   ROW     8   COL     4   RATE     0.00000    
 SEGMENT      9   ROW     8   COL     5   RATE     0.00000    
 
 

        GW IRRIGATION     PERIOD    7   STEP   5
 AWU WELL      1   ROW     6   COL     4   RATE     0.00000    
 AWU WELL      2   ROW     6   COL     5   RATE     0.00000    
 AWU WELL      3   ROW     7   COL     4   RATE     0.00000    
 AWU WELL      4   ROW     7   COL     5   RATE     0.00000    
 AWU WELL      5   ROW     8   COL     4   RATE     0.00000    
 AWU WELL      6   ROW     8   COL     5   RATE     0.00000    
 
1
  VOLUMETRIC BUDGET FOR ENTIRE MODEL AT END OF TIME STEP    5, STRESS PERIOD   7
  ------------------------------------------------------------------------------

     CUMULATIVE VOLUMES      L**3       RATES FOR THIS TIME STEP      L**3/T
     ------------------                 ------------------------

           IN:                                      IN:
           ---                                      ---
               AWU WELLS =    32757524.0000                 AWU WELLS =           0.0000
      DIVERSION SEGMENTS =    19639078.0000        DIVERSION SEGMENTS =           0.0000
           GW IRRIGATION =           0.0000             GW IRRIGATION =           0.0000
           SW IRRIGATION =           0.0000             SW IRRIGATION =           0.0000
        SYSTEM LOSSES GW =           0.0000          SYSTEM LOSSES GW =           0.0000
        SYSTEM LOSSES SW =           0.0000          SYSTEM LOSSES SW =           0.0000

                TOTAL IN =    52396600.0000                  TOTAL IN =           0.0000

          OUT:                                     OUT:
          ----                                     ----
               AWU WELLS =           0.0000                 AWU WELLS =           0.0000
      DIVERSION SEGMENTS =           0.0000        DIVERSION SEGMENTS =           0.0000
           GW IRRIGATION =    32757524.0000             GW IRRIGATION =           0.0000
           SW IRRIGATION =    19639468.0000             SW IRRIGATION =           0.0000
        SYSTEM LOSSES GW =           0.0000          SYSTEM LOSSES GW =           0.0000
        SYSTEM LOSSES SW =           0.0000          SYSTEM LOSSES SW =           0.0000

               TOTAL OUT =    52396992.0000                 TOTAL OUT =           0.0000

                IN - OUT =        -392.0000                  IN - OUT =           0.0000

     PERCENT DISCREPANCY =          -0.00         PERCENT DISCREPANCY =           0.00



1
  VOLUMETRIC BUDGET FOR ENTIRE MODEL AT END OF TIME STEP    5, STRESS PERIOD   7
  ------------------------------------------------------------------------------

     CUMULATIVE VOLUMES      L**3       RATES FOR THIS TIME STEP      L**3/T
     ------------------                 ------------------------

           IN:                                      IN:
           ---                                      ---
             STORAGE     =    55516284.0000               STORAGE     =           2.7687
       CONSTANT HEAD     =           0.0000         CONSTANT HEAD     =           0.0000
     HEAD DEP BOUNDS     =     3904661.5000       HEAD DEP BOUNDS     =           0.2857
      STREAM LEAKAGE     =   173587536.0000        STREAM LEAKAGE     =          13.6822
        UZF RECHARGE     =     6221052.0000          UZF RECHARGE     =           0.3385
               GW ET     =           0.0000                 GW ET     =           0.0000
     SURFACE LEAKAGE     =           0.0000       SURFACE LEAKAGE     =           0.0000
           AWU WELLS     =           0.0000             AWU WELLS     =           0.0000

                TOTAL IN =   239229536.0000                  TOTAL IN =          17.0751

          OUT:                                     OUT:
          ----                                     ----
             STORAGE     =    60019292.0000               STORAGE     =           3.9330
       CONSTANT HEAD     =           0.0000         CONSTANT HEAD     =           0.0000
     HEAD DEP BOUNDS     =     3998981.7500       HEAD DEP BOUNDS     =           0.2963
      STREAM LEAKAGE     =   136772400.0000        STREAM LEAKAGE     =           9.6119
        UZF RECHARGE     =           0.0000          UZF RECHARGE     =           0.0000
               GW ET     =     5689409.5000                 GW ET     =           3.2332
     SURFACE LEAKAGE     =           0.0000       SURFACE LEAKAGE     =           0.0000
           AWU WELLS     =    32757524.0000             AWU WELLS     =           0.0000

               TOTAL OUT =   239237600.0000                 TOTAL OUT =          17.0744

                IN - OUT =       -8064.0000                  IN - OUT =       6.9237E-04

     PERCENT DISCREPANCY =          -0.00         PERCENT DISCREPANCY =           0.00






         TIME SUMMARY AT END OF TIME STEP    5 IN STRESS PERIOD    7
                    SECONDS     MINUTES      HOURS       DAYS        YEARS
                    -----------------------------------------------------------
   TIME STEP LENGTH  87600.      1460.0      24.333      1.0139     2.77588E-03
 STRESS PERIOD TIME 4.38000E+05  7300.0      121.67      5.0694     1.38794E-02
         TOTAL TIME 1.36644E+07 2.27740E+05  3795.7      158.15     0.43300    
1
 
 SOLVING FOR HEAD 
                                                   Max.-Head-Change                         Max.-Flux-Residual
  Residual-Control   Outer-Iter.   Inner-Iter.     Column Row Layer    Maximum-Head-Change  Column Row Layer    Maximum-Flux-Residual          L2-NORM 
          0                 1           2             4    7     1       0.6689702938E-02       3   13    1        -0.3751010703E+00      0.1171844962E+01
          0                 2           2             4    7     1      -0.6507261656E-03       4   13    1         0.3703078617E-01      0.1035418152E+00
          0                 3           1             4    7     1       0.4431203372E-04       4   13    1        -0.2549388521E-02      0.7192551240E-02

    ------------------------------------------------
       NWT REQUIRED            3 OUTER ITERATIONS 
       AND A TOTAL OF          5 INNER ITERATIONS.
    ------------------------------------------------

 NO OUTPUT CONTROL FOR STRESS PERIOD    7   TIME STEP    6
 
 SOLVING FOR HEAD 
                                                   Max.-Head-Change                         Max.-Flux-Residual
  Residual-Control   Outer-Iter.   Inner-Iter.     Column Row Layer    Maximum-Head-Change  Column Row Layer    Maximum-Flux-Residual          L2-NORM 
          0                 1           2             4    7     1       0.6597574085E-02       4    7    1         0.3478598668E+00      0.1130616140E+01
          0                 2           2             4    7     1      -0.6417645274E-03       4    7    1        -0.3478603415E-01      0.9918611313E-01
          0                 3           1             4    7     1       0.4370178021E-04       4    7    1         0.2435023005E-02      0.6903274279E-02

    ------------------------------------------------
       NWT REQUIRED            3 OUTER ITERATIONS 
       AND A TOTAL OF          5 INNER ITERATIONS.
    ------------------------------------------------

 NO OUTPUT CONTROL FOR STRESS PERIOD    7   TIME STEP    7
 
 SOLVING FOR HEAD 
                                                   Max.-Head-Change                         Max.-Flux-Residual
  Residual-Control   Outer-Iter.   Inner-Iter.     Column Row Layer    Maximum-Head-Change  Column Row Layer    Maximum-Flux-Residual          L2-NORM 
          0                 1           2             4    7     1       0.6506308787E-02       4    7    1         0.3430646199E+00      0.1093355120E+01
          0                 2           2             4    7     1      -0.6328868883E-03       4    7    1        -0.3430650884E-01      0.9521960908E-01
          0                 3           1             4    7     1       0.4309724615E-04       4    7    1         0.2401456217E-02      0.6640888087E-02

    ------------------------------------------------
       NWT REQUIRED            3 OUTER ITERATIONS 
       AND A TOTAL OF          5 INNER ITERATIONS.
    ------------------------------------------------

 NO OUTPUT CONTROL FOR STRESS PERIOD    7   TIME STEP    8
 
 SOLVING FOR HEAD 
                                                   Max.-Head-Change                         Max.-Flux-Residual
  Residual-Control   Outer-Iter.   Inner-Iter.     Column Row Layer    Maximum-Head-Change  Column Row Layer    Maximum-Flux-Residual          L2-NORM 
          0                 1           2             4    7     1       0.6415944899E-02       4    7    1         0.3383141821E+00      0.1059285866E+01
          0                 2           2             4    7     1      -0.6240969315E-03       4    7    1        -0.3383146437E-01      0.9156460435E-01
          0                 3           1             4    7     1       0.4249868311E-04       4    7    1         0.2368203106E-02      0.6398586519E-02

    ------------------------------------------------
       NWT REQUIRED            3 OUTER ITERATIONS 
       AND A TOTAL OF          5 INNER ITERATIONS.
    ------------------------------------------------

 NO OUTPUT CONTROL FOR STRESS PERIOD    7   TIME STEP    9
 
 SOLVING FOR HEAD 
                                                   Max.-Head-Change                         Max.-Flux-Residual
  Residual-Control   Outer-Iter.   Inner-Iter.     Column Row Layer    Maximum-Head-Change  Column Row Layer    Maximum-Flux-Residual          L2-NORM 
          0                 1           2             5    8     1      -0.1693313724E-01       5    8    1        -0.9094059613E+00      0.2407092258E+01
          0                 2           2             5    8     1       0.1646533400E-02       5    8    1         0.9090746841E-01      0.2339581327E+00
          0                 3           2             5    8     1      -0.1126957769E-03       5    8    1        -0.6395957105E-02      0.1637214755E-01
          0                 4           1             2    3     1       0.4098268783E-05       5    8    1         0.2291700544E-03      0.6077721012E-03

    ------------------------------------------------
       NWT REQUIRED            4 OUTER ITERATIONS 
       AND A TOTAL OF          7 INNER ITERATIONS.
    ------------------------------------------------

 OUTPUT CONTROL FOR STRESS PERIOD    7   TIME STEP   10
    PRINT BUDGET
    SAVE BUDGET
 UBDSV1 SAVING "         STORAGE" ON UNIT 102 AT TIME STEP 10, STRESS PERIOD   7
 UBDSV2 SAVING "   CONSTANT HEAD" ON UNIT 102 AT TIME STEP 10, STRESS PERIOD   7
 UBDSV1 SAVING "FLOW RIGHT FACE " ON UNIT 102 AT TIME STEP 10, STRESS PERIOD   7
 UBDSV1 SAVING "FLOW FRONT FACE " ON UNIT 102 AT TIME STEP 10, STRESS PERIOD   7

  HEAD DEP BOUNDS   PERIOD    7   STEP    10
 BOUNDARY      1   LAYER   1   ROW    13   COL     1   RATE   -0.295194    
 BOUNDARY      2   LAYER   1   ROW    14   COL     9   RATE    0.285716    



 STREAM LISTING     PERIOD      7   STEP       10

 LAYER ROW COL. STREAM  RCH.  FLOW INTO     FLOW TO   FLOW OUT OF   OVRLND.     DIRECT     STREAM       STREAM     STREAM     STREAM   STREAMBED  STREAMBED
                SEG.NO.  NO.  STRM. RCH.    AQUIFER    STRM. RCH.    RUNOFF     PRECIP       ET          HEAD       DEPTH      WIDTH   CONDCTNC.   GRADIENT

   1    1    1     1     1    8.3000E+01  4.4019E-01   8.2560E+01  0.000E+00  0.000E+00  0.000E+00  1.09478E+03  1.734E+00  2.066E+01  9.299E-02  1.578E+00
   1    2    2     1     2    8.2560E+01  6.8286E-01   8.1877E+01  0.000E+00  0.000E+00  0.000E+00  1.08979E+03  1.731E+00  2.062E+01  1.443E-01  1.577E+00
   1    3    3     1     3    8.1877E+01  5.8348E-01   8.1293E+01  0.000E+00  0.000E+00  0.000E+00  1.08415E+03  1.729E+00  2.057E+01  1.234E-01  1.576E+00
   1    3    4     1     4    8.1293E+01  5.3822E-01   8.0755E+01  0.000E+00  0.000E+00  0.000E+00  1.07913E+03  1.726E+00  2.052E+01  1.139E-01  1.575E+00
   1    4    5     2     1    7.8755E+01  4.2120E-01   7.8334E+01  0.000E+00  0.000E+00  0.000E+00  1.07433E+03  2.400E+00  1.200E+01  7.800E-02  1.800E+00
   1    5    6     2     2    7.8334E+01  3.2359E-01   7.8010E+01  0.000E+00  0.000E+00  0.000E+00  1.06890E+03  2.393E+00  1.200E+01  6.000E-02  1.798E+00
   1    6    6     2     3    7.8010E+01  3.2323E-01   7.7687E+01  0.000E+00  0.000E+00  0.000E+00  1.06418E+03  2.387E+00  1.200E+01  6.000E-02  1.796E+00
   1    7    6     2     4    7.7687E+01  3.2288E-01   7.7364E+01  0.000E+00  0.000E+00  0.000E+00  1.05946E+03  2.381E+00  1.200E+01  6.000E-02  1.794E+00
   1    8    6     2     5    7.7364E+01  3.2252E-01   7.7042E+01  0.000E+00  0.000E+00  0.000E+00  1.05473E+03  2.375E+00  1.200E+01  6.000E-02  1.792E+00
   1    3    5     3     1    2.0000E+00  2.8252E-01   1.7175E+00  0.000E+00  0.000E+00  0.000E+00  1.07555E+03  1.909E+00  9.636E+00  7.227E-02  1.955E+00
   1    3    6     3     2    1.7175E+00  2.4905E-01   1.4684E+00  0.000E+00  0.000E+00  0.000E+00  1.07264E+03  1.727E+00  8.909E+00  6.682E-02  1.864E+00
   1    3    7     3     3    1.4684E+00  1.9718E-01   1.2712E+00  0.000E+00  0.000E+00  0.000E+00  1.06987E+03  1.555E+00  8.218E+00  5.547E-02  1.777E+00
   1    4    8     3     4    1.2712E+00  2.2567E-01   1.0456E+00  0.000E+00  0.000E+00  0.000E+00  1.06682E+03  1.364E+00  7.455E+00  6.709E-02  1.682E+00
   1    5    8     3     5    1.0456E+00  1.5790E-01   8.8768E-01  0.000E+00  0.000E+00  0.000E+00  1.06362E+03  1.164E+00  6.655E+00  4.991E-02  1.582E+00
   1    6    8     3     6    8.8768E-01  5.5980E-02   8.3170E-01  0.000E+00  0.000E+00  0.000E+00  1.06158E+03  1.036E+00  6.145E+00  1.844E-02  1.518E+00
   1    5   10     4     1    1.0000E+01  9.0919E-02   9.9091E+00  0.000E+00  0.000E+00  0.000E+00  1.07836E+03  6.368E-01  1.000E+01  2.500E-02  1.212E+00
   1    5    9     4     2    9.9091E+00  1.8158E-01   9.7275E+00  0.000E+00  0.000E+00  0.000E+00  1.07154E+03  6.315E-01  1.000E+01  5.000E-02  1.211E+00
   1    6    8     4     3    9.7275E+00  1.2689E-01   9.6006E+00  0.000E+00  0.000E+00  0.000E+00  1.06381E+03  6.256E-01  1.000E+01  3.500E-02  1.209E+00
   1    6    8     5     1    1.0432E+01  2.2686E-01   1.0205E+01  0.000E+00  0.000E+00  0.000E+00  1.05868E+03  6.790E-01  1.542E+01  6.166E-02  1.226E+00
   1    7    7     5     2    1.0205E+01  2.7894E-01   9.9265E+00  0.000E+00  0.000E+00  0.000E+00  1.05417E+03  6.732E-01  1.519E+01  7.594E-02  1.224E+00
   1    8    7     5     3    9.9265E+00  1.9221E-01   9.7343E+00  0.000E+00  0.000E+00  0.000E+00  1.04992E+03  6.676E-01  1.497E+01  5.241E-02  1.223E+00
   1    8    6     5     4    9.7343E+00  1.3577E-01   9.5985E+00  0.000E+00  0.000E+00  0.000E+00  1.04691E+03  6.637E-01  1.482E+01  3.706E-02  1.221E+00
   1    9    6     6     1    7.4460E+01  3.2084E-01   7.4139E+01  0.000E+00  0.000E+00  0.000E+00  1.04507E+03  2.347E+00  1.200E+01  6.000E-02  1.782E+00
   1   10    7     6     2    7.4139E+01  3.2047E-01   7.3819E+01  0.000E+00  0.000E+00  0.000E+00  1.04052E+03  2.341E+00  1.200E+01  6.000E-02  1.780E+00
   1   11    7     6     3    7.3819E+01  3.2011E-01   7.3499E+01  0.000E+00  0.000E+00  0.000E+00  1.03597E+03  2.335E+00  1.200E+01  6.000E-02  1.778E+00
   1   12    7     6     4    7.3499E+01  3.1974E-01   7.3179E+01  0.000E+00  0.000E+00  0.000E+00  1.03142E+03  2.329E+00  1.200E+01  6.000E-02  1.776E+00
   1   13    7     6     5    7.3179E+01  2.5822E-02   7.3153E+01  0.000E+00  0.000E+00  0.000E+00  1.02823E+03  2.326E+00  1.200E+01  2.400E-02  3.586E-01
   1   14    9     7     1    1.5000E+02  1.3352E+00   1.4866E+02  0.000E+00  0.000E+00  0.000E+00  1.03987E+03  2.288E+00  5.529E+01  5.593E-01  7.957E-01
   1   13    8     7     2    1.4866E+02  1.8175E+00   1.4685E+02  0.000E+00  0.000E+00  0.000E+00  1.03478E+03  2.279E+00  5.526E+01  6.148E-01  9.854E-01
   1   13    7     7     3    1.4685E+02  1.4136E+00   1.4543E+02  0.000E+00  0.000E+00  0.000E+00  1.02969E+03  2.271E+00  5.522E+01  5.585E-01  8.437E-01
   1   13    6     8     1    2.1859E+02  1.0546E+00   2.1753E+02  0.000E+00  0.000E+00  0.000E+00  1.02512E+03  3.241E+00  4.700E+01  4.789E-01  7.341E-01
   1   13    5     8     2    2.1753E+02  2.6067E-01   2.1727E+02  0.000E+00  0.000E+00  0.000E+00  1.01886E+03  3.237E+00  4.694E+01  4.784E-01  1.816E-01
   1   13    4     8     3    2.1727E+02 -2.2558E+00   2.1953E+02  0.000E+00  0.000E+00  0.000E+00  1.01262E+03  3.243E+00  4.702E+01  4.792E+00 -1.569E-01
   1   13    3     8     4    2.1953E+02 -3.4801E+00   2.2301E+02  0.000E+00  0.000E+00  0.000E+00  1.00638E+03  3.259E+00  4.725E+01  4.815E+00 -2.409E-01
   1   13    2     8     5    2.2301E+02 -2.5718E+00   2.2558E+02  0.000E+00  0.000E+00  0.000E+00  1.00015E+03  3.276E+00  4.750E+01  4.840E+00 -1.771E-01
   1   13    1     8     6    2.2558E+02 -1.7658E+00   2.2734E+02  0.000E+00  0.000E+00  0.000E+00  9.95162E+02  3.287E+00  4.767E+01  2.914E+00 -2.020E-01
   1    8    6     9     1    1.2180E+01  0.0000E+00   1.2180E+01  0.000E+00  0.000E+00  0.000E+00  1.08130E+03  2.551E+00  4.000E+00  0.000E+00  1.850E+00
   1    8    5     9     2    1.2180E+01  0.0000E+00   1.2180E+01  0.000E+00  0.000E+00  0.000E+00  1.08080E+03  2.551E+00  4.000E+00  0.000E+00  1.850E+00



 UBDSV3 SAVING "           GW ET" ON UNIT  61 AT TIME STEP 10, STRESS PERIOD   7
 UBDSV3 SAVING "    UZF RECHARGE" ON UNIT  61 AT TIME STEP 10, STRESS PERIOD   7
 UBDSV3 SAVING " SURFACE LEAKAGE" ON UNIT  61 AT TIME STEP 10, STRESS PERIOD   7
 UBDSV3 SAVING "       HORT+DUNN" ON UNIT  61 AT TIME STEP 10, STRESS PERIOD   7
 UBDSV3 SAVING "  STORAGE CHANGE" ON UNIT  61 AT TIME STEP 10, STRESS PERIOD   7


UNSATURATED ZONE PACKAGE VOLUMETRIC BUDGET FOR  TIME STEP    10 STRESS PERIOD    7
  ------------------------------------------------------------------------------



     CUMULATIVE VOLUMES      L**3       RATES FOR THIS TIME STEP      L**3/T
     ------------------                 ------------------------

           IN:                                      IN:
           ---                                      ---
        INFILTRATION =    66008684.3229          INFILTRATION =          19.7968

          OUT:                                     OUT:
          ----                                     ----
              UZF ET =    17344167.2998                UZF ET =           5.8074
        UZF RECHARGE =     6365126.1601          UZF RECHARGE =           0.3191

            IN - OUT =    42299390.8629              IN - OUT =          13.6702

          STORAGE:                                 STORAGE:
          --------                                 --------
      STORAGE CHANGE =    42316708.3885        STORAGE CHANGE =          13.6702

 PERCENT DISCREPANCY IS DIFFERENCE BETWEEN IN-OUT MINUS CHANGE IN STORAGE
 DIVIDED BY THE AVERAGE OF IN AND OUT TIMES 100

 PERCENT DISCREPANCY =          -0.01     PERCENT DISCREPANCY =           0.00






 

            AWU WELLS     PERIOD    7   STEP  10
 AWU WELL      1   LAYER   1   ROW     6   COL     4   RATE    -1.12811    
 AWU WELL      2   LAYER   1   ROW     6   COL     5   RATE    -1.12811    
 AWU WELL      3   LAYER   1   ROW     7   COL     4   RATE    -1.12811    
 AWU WELL      4   LAYER   1   ROW     7   COL     5   RATE    -1.12811    
 AWU WELL      5   LAYER   1   ROW     8   COL     4   RATE    -1.12811    
 AWU WELL      6   LAYER   1   ROW     8   COL     5   RATE    -1.12811    
 
 

   DIVERSION SEGMENTS     PERIOD    7   STEP  10
 SEGMENT      9   RATE     12.1804    
 
 

        SW IRRIGATION     PERIOD    7   STEP  10
 SEGMENT      9   ROW     6   COL     4   RATE     2.03010    
 SEGMENT      9   ROW     6   COL     5   RATE     2.03010    
 SEGMENT      9   ROW     7   COL     4   RATE     2.03010    
 SEGMENT      9   ROW     7   COL     5   RATE     2.03010    
 SEGMENT      9   ROW     8   COL     4   RATE     2.03010    
 SEGMENT      9   ROW     8   COL     5   RATE     2.03010    
 
 

        GW IRRIGATION     PERIOD    7   STEP  10
 AWU WELL      1   ROW     6   COL     4   RATE     1.12811    
 AWU WELL      2   ROW     6   COL     5   RATE     1.12811    
 AWU WELL      3   ROW     7   COL     4   RATE     1.12811    
 AWU WELL      4   ROW     7   COL     5   RATE     1.12811    
 AWU WELL      5   ROW     8   COL     4   RATE     1.12811    
 AWU WELL      6   ROW     8   COL     5   RATE     1.12811    
 
1
  VOLUMETRIC BUDGET FOR ENTIRE MODEL AT END OF TIME STEP   10, STRESS PERIOD   7
  ------------------------------------------------------------------------------

     CUMULATIVE VOLUMES      L**3       RATES FOR THIS TIME STEP      L**3/T
     ------------------                 ------------------------

           IN:                                      IN:
           ---                                      ---
               AWU WELLS =    33350460.0000                 AWU WELLS =           6.7687
      DIVERSION SEGMENTS =    20706078.0000        DIVERSION SEGMENTS =          12.1804
           GW IRRIGATION =           0.0000             GW IRRIGATION =           0.0000
           SW IRRIGATION =           0.0000             SW IRRIGATION =           0.0000
        SYSTEM LOSSES GW =           0.0000          SYSTEM LOSSES GW =           0.0000
        SYSTEM LOSSES SW =           0.0000          SYSTEM LOSSES SW =           0.0000

                TOTAL IN =    54056536.0000                  TOTAL IN =          18.9490

          OUT:                                     OUT:
          ----                                     ----
               AWU WELLS =           0.0000                 AWU WELLS =           0.0000
      DIVERSION SEGMENTS =           0.0000        DIVERSION SEGMENTS =           0.0000
           GW IRRIGATION =    33350460.0000             GW IRRIGATION =           6.7687
           SW IRRIGATION =    20706490.0000             SW IRRIGATION =          12.1806
        SYSTEM LOSSES GW =           0.0000          SYSTEM LOSSES GW =           0.0000
        SYSTEM LOSSES SW =           0.0000          SYSTEM LOSSES SW =           0.0000

               TOTAL OUT =    54056952.0000                 TOTAL OUT =          18.9493

                IN - OUT =        -416.0000                  IN - OUT =      -2.4223E-04

     PERCENT DISCREPANCY =          -0.00         PERCENT DISCREPANCY =          -0.00



1
  VOLUMETRIC BUDGET FOR ENTIRE MODEL AT END OF TIME STEP   10, STRESS PERIOD   7
  ------------------------------------------------------------------------------

     CUMULATIVE VOLUMES      L**3       RATES FOR THIS TIME STEP      L**3/T
     ------------------                 ------------------------

           IN:                                      IN:
           ---                                      ---
             STORAGE     =    57096436.0000               STORAGE     =           8.2216
       CONSTANT HEAD     =           0.0000         CONSTANT HEAD     =           0.0000
     HEAD DEP BOUNDS     =     4029806.0000       HEAD DEP BOUNDS     =           0.2857
      STREAM LEAKAGE     =   179571440.0000        STREAM LEAKAGE     =          13.5482
        UZF RECHARGE     =     6365123.0000          UZF RECHARGE     =           0.3191
               GW ET     =           0.0000                 GW ET     =           0.0000
     SURFACE LEAKAGE     =           0.0000       SURFACE LEAKAGE     =           0.0000
           AWU WELLS     =           0.0000             AWU WELLS     =           0.0000

                TOTAL IN =   247062800.0000                  TOTAL IN =          22.3746

          OUT:                                     OUT:
          ----                                     ----
             STORAGE     =    61539768.0000               STORAGE     =           2.0168
       CONSTANT HEAD     =           0.0000         CONSTANT HEAD     =           0.0000
     HEAD DEP BOUNDS     =     4128474.0000       HEAD DEP BOUNDS     =           0.2952
      STREAM LEAKAGE     =   140948784.0000        STREAM LEAKAGE     =          10.0735
        UZF RECHARGE     =           0.0000          UZF RECHARGE     =           0.0000
               GW ET     =     7103184.5000                 GW ET     =           3.2204
     SURFACE LEAKAGE     =           0.0000       SURFACE LEAKAGE     =           0.0000
           AWU WELLS     =    33350460.0000             AWU WELLS     =           6.7687

               TOTAL OUT =   247070672.0000                 TOTAL OUT =          22.3746

                IN - OUT =       -7872.0000                  IN - OUT =       2.6703E-05

     PERCENT DISCREPANCY =          -0.00         PERCENT DISCREPANCY =           0.00






         TIME SUMMARY AT END OF TIME STEP   10 IN STRESS PERIOD    7
                    SECONDS     MINUTES      HOURS       DAYS        YEARS
                    -----------------------------------------------------------
   TIME STEP LENGTH  87600.      1460.0      24.333      1.0139     2.77588E-03
 STRESS PERIOD TIME 8.76000E+05  14600.      243.33      10.139     2.77588E-02
         TOTAL TIME 1.41024E+07 2.35040E+05  3917.3      163.22     0.44688    
1
 
 SOLVING FOR HEAD 
                                                   Max.-Head-Change                         Max.-Flux-Residual
  Residual-Control   Outer-Iter.   Inner-Iter.     Column Row Layer    Maximum-Head-Change  Column Row Layer    Maximum-Flux-Residual          L2-NORM 
          0                 1           2             4   13     1      -0.2440771285E-01       4   13    1        -0.1401267515E+01      0.2661354190E+01
          0                 2           2             4   13     1       0.2264163128E-01       4   13    1         0.1348653276E+01      0.2342228493E+01
          0                 3           2             4   13     1      -0.1518768034E-02       4   13    1        -0.9303530288E-01      0.1568182312E+00
          0                 4           1             4   13     1       0.5890896534E-04       4   13    1         0.3709836783E-02      0.5961373233E-02

    ------------------------------------------------
       NWT REQUIRED            4 OUTER ITERATIONS 
       AND A TOTAL OF          7 INNER ITERATIONS.
    ------------------------------------------------

 NO OUTPUT CONTROL FOR STRESS PERIOD    7   TIME STEP   11
 
 SOLVING FOR HEAD 
                                                   Max.-Head-Change                         Max.-Flux-Residual
  Residual-Control   Outer-Iter.   Inner-Iter.     Column Row Layer    Maximum-Head-Change  Column Row Layer    Maximum-Flux-Residual          L2-NORM 
          0                 1           2             4   13     1      -0.2411783021E-01       4   13    1        -0.1384678453E+01      0.2629805155E+01
          0                 2           2             4   13     1       0.2263608439E-01       4   13    1         0.1348331934E+01      0.2341533574E+01
          0                 3           2             4   13     1      -0.1518390905E-02       4   13    1        -0.9301282804E-01      0.1567640062E+00
          0                 4           1             4   13     1       0.5888774410E-04       4   13    1         0.3708520272E-02      0.5959041541E-02

    ------------------------------------------------
       NWT REQUIRED            4 OUTER ITERATIONS 
       AND A TOTAL OF          7 INNER ITERATIONS.
    ------------------------------------------------

 NO OUTPUT CONTROL FOR STRESS PERIOD    7   TIME STEP   12
 
 SOLVING FOR HEAD 
                                                   Max.-Head-Change                         Max.-Flux-Residual
  Residual-Control   Outer-Iter.   Inner-Iter.     Column Row Layer    Maximum-Head-Change  Column Row Layer    Maximum-Flux-Residual          L2-NORM 
          0                 1           2             4   13     1      -0.2385639819E-01       4   13    1        -0.1369725994E+01      0.2600701509E+01
          0                 2           2             4   13     1       0.2263132140E-01       4   13    1         0.1348055977E+01      0.2340901550E+01
          0                 3           2             4   13     1      -0.1518053076E-02       4   13    1        -0.9299168355E-01      0.1567108673E+00
          0                 4           1             4   13     1       0.5885878847E-04       4   13    1         0.3706761607E-02      0.5955717353E-02

    ------------------------------------------------
       NWT REQUIRED            4 OUTER ITERATIONS 
       AND A TOTAL OF          7 INNER ITERATIONS.
    ------------------------------------------------

 NO OUTPUT CONTROL FOR STRESS PERIOD    7   TIME STEP   13
 
 SOLVING FOR HEAD 
                                                   Max.-Head-Change                         Max.-Flux-Residual
  Residual-Control   Outer-Iter.   Inner-Iter.     Column Row Layer    Maximum-Head-Change  Column Row Layer    Maximum-Flux-Residual          L2-NORM 
          0                 1           2             4   13     1      -0.2362053249E-01       4   13    1        -0.1356243658E+01      0.2573836952E+01
          0                 2           2             4   13     1       0.2262726401E-01       4   13    1         0.1347821017E+01      0.2340327385E+01
          0                 3           2             4   13     1      -0.1517788288E-02       4   13    1        -0.9297418590E-01      0.1566647455E+00
          0                 4           1             4   13     1       0.5884518200E-04       4   13    1         0.3705984376E-02      0.5954275970E-02

    ------------------------------------------------
       NWT REQUIRED            4 OUTER ITERATIONS 
       AND A TOTAL OF          7 INNER ITERATIONS.
    ------------------------------------------------

 NO OUTPUT CONTROL FOR STRESS PERIOD    7   TIME STEP   14
 
 SOLVING FOR HEAD 
                                                   Max.-Head-Change                         Max.-Flux-Residual
  Residual-Control   Outer-Iter.   Inner-Iter.     Column Row Layer    Maximum-Head-Change  Column Row Layer    Maximum-Flux-Residual          L2-NORM 
          0                 1           2             4   13     1      -0.2340765423E-01       4   13    1        -0.1344082719E+01      0.2549019308E+01
          0                 2           2             4   13     1       0.2262386894E-01       4   13    1         0.1347625555E+01      0.2339807058E+01
          0                 3           2             4   13     1      -0.1517590033E-02       4   13    1        -0.9296101367E-01      0.1566221034E+00
          0                 4           1             4   13     1       0.5884234480E-04       4   13    1         0.3705906557E-02      0.5951222160E-02

    ------------------------------------------------
       NWT REQUIRED            4 OUTER ITERATIONS 
       AND A TOTAL OF          7 INNER ITERATIONS.
    ------------------------------------------------

 OUTPUT CONTROL FOR STRESS PERIOD    7   TIME STEP   15
    PRINT BUDGET
    SAVE BUDGET
 UBDSV1 SAVING "         STORAGE" ON UNIT 102 AT TIME STEP 15, STRESS PERIOD   7
 UBDSV2 SAVING "   CONSTANT HEAD" ON UNIT 102 AT TIME STEP 15, STRESS PERIOD   7
 UBDSV1 SAVING "FLOW RIGHT FACE " ON UNIT 102 AT TIME STEP 15, STRESS PERIOD   7
 UBDSV1 SAVING "FLOW FRONT FACE " ON UNIT 102 AT TIME STEP 15, STRESS PERIOD   7

  HEAD DEP BOUNDS   PERIOD    7   STEP    15
 BOUNDARY      1   LAYER   1   ROW    13   COL     1   RATE   -0.294457    
 BOUNDARY      2   LAYER   1   ROW    14   COL     9   RATE    0.285711    



 STREAM LISTING     PERIOD      7   STEP       15

 LAYER ROW COL. STREAM  RCH.  FLOW INTO     FLOW TO   FLOW OUT OF   OVRLND.     DIRECT     STREAM       STREAM     STREAM     STREAM   STREAMBED  STREAMBED
                SEG.NO.  NO.  STRM. RCH.    AQUIFER    STRM. RCH.    RUNOFF     PRECIP       ET          HEAD       DEPTH      WIDTH   CONDCTNC.   GRADIENT

   1    1    1     1     1    8.3000E+01  4.4019E-01   8.2560E+01  0.000E+00  0.000E+00  0.000E+00  1.09478E+03  1.734E+00  2.066E+01  9.299E-02  1.578E+00
   1    2    2     1     2    8.2560E+01  6.8286E-01   8.1877E+01  0.000E+00  0.000E+00  0.000E+00  1.08979E+03  1.731E+00  2.062E+01  1.443E-01  1.577E+00
   1    3    3     1     3    8.1877E+01  5.8348E-01   8.1293E+01  0.000E+00  0.000E+00  0.000E+00  1.08415E+03  1.729E+00  2.057E+01  1.234E-01  1.576E+00
   1    3    4     1     4    8.1293E+01  5.3822E-01   8.0755E+01  0.000E+00  0.000E+00  0.000E+00  1.07913E+03  1.726E+00  2.052E+01  1.139E-01  1.575E+00
   1    4    5     2     1    7.8755E+01  4.2120E-01   7.8334E+01  0.000E+00  0.000E+00  0.000E+00  1.07433E+03  2.400E+00  1.200E+01  7.800E-02  1.800E+00
   1    5    6     2     2    7.8334E+01  3.2359E-01   7.8010E+01  0.000E+00  0.000E+00  0.000E+00  1.06890E+03  2.393E+00  1.200E+01  6.000E-02  1.798E+00
   1    6    6     2     3    7.8010E+01  3.2323E-01   7.7687E+01  0.000E+00  0.000E+00  0.000E+00  1.06418E+03  2.387E+00  1.200E+01  6.000E-02  1.796E+00
   1    7    6     2     4    7.7687E+01  3.2288E-01   7.7364E+01  0.000E+00  0.000E+00  0.000E+00  1.05946E+03  2.381E+00  1.200E+01  6.000E-02  1.794E+00
   1    8    6     2     5    7.7364E+01  3.2252E-01   7.7042E+01  0.000E+00  0.000E+00  0.000E+00  1.05473E+03  2.375E+00  1.200E+01  6.000E-02  1.792E+00
   1    3    5     3     1    2.0000E+00  2.8252E-01   1.7175E+00  0.000E+00  0.000E+00  0.000E+00  1.07555E+03  1.909E+00  9.636E+00  7.227E-02  1.955E+00
   1    3    6     3     2    1.7175E+00  2.4905E-01   1.4684E+00  0.000E+00  0.000E+00  0.000E+00  1.07264E+03  1.727E+00  8.909E+00  6.682E-02  1.864E+00
   1    3    7     3     3    1.4684E+00  1.9718E-01   1.2712E+00  0.000E+00  0.000E+00  0.000E+00  1.06987E+03  1.555E+00  8.218E+00  5.547E-02  1.777E+00
   1    4    8     3     4    1.2712E+00  2.2567E-01   1.0456E+00  0.000E+00  0.000E+00  0.000E+00  1.06682E+03  1.364E+00  7.455E+00  6.709E-02  1.682E+00
   1    5    8     3     5    1.0456E+00  1.5790E-01   8.8768E-01  0.000E+00  0.000E+00  0.000E+00  1.06362E+03  1.164E+00  6.655E+00  4.991E-02  1.582E+00
   1    6    8     3     6    8.8768E-01  5.5980E-02   8.3170E-01  0.000E+00  0.000E+00  0.000E+00  1.06158E+03  1.036E+00  6.145E+00  1.844E-02  1.518E+00
   1    5   10     4     1    1.0000E+01  9.0919E-02   9.9091E+00  0.000E+00  0.000E+00  0.000E+00  1.07836E+03  6.368E-01  1.000E+01  2.500E-02  1.212E+00
   1    5    9     4     2    9.9091E+00  1.8158E-01   9.7275E+00  0.000E+00  0.000E+00  0.000E+00  1.07154E+03  6.315E-01  1.000E+01  5.000E-02  1.211E+00
   1    6    8     4     3    9.7275E+00  1.2689E-01   9.6006E+00  0.000E+00  0.000E+00  0.000E+00  1.06381E+03  6.256E-01  1.000E+01  3.500E-02  1.209E+00
   1    6    8     5     1    1.0432E+01  2.2686E-01   1.0205E+01  0.000E+00  0.000E+00  0.000E+00  1.05868E+03  6.790E-01  1.542E+01  6.166E-02  1.226E+00
   1    7    7     5     2    1.0205E+01  2.7894E-01   9.9265E+00  0.000E+00  0.000E+00  0.000E+00  1.05417E+03  6.732E-01  1.519E+01  7.594E-02  1.224E+00
   1    8    7     5     3    9.9265E+00  1.9221E-01   9.7343E+00  0.000E+00  0.000E+00  0.000E+00  1.04992E+03  6.676E-01  1.497E+01  5.241E-02  1.223E+00
   1    8    6     5     4    9.7343E+00  1.3577E-01   9.5985E+00  0.000E+00  0.000E+00  0.000E+00  1.04691E+03  6.637E-01  1.482E+01  3.706E-02  1.221E+00
   1    9    6     6     1    8.6640E+01  3.3426E-01   8.6305E+01  0.000E+00  0.000E+00  0.000E+00  1.04530E+03  2.571E+00  1.200E+01  6.000E-02  1.857E+00
   1   10    7     6     2    8.6305E+01  3.3390E-01   8.5971E+01  0.000E+00  0.000E+00  0.000E+00  1.04075E+03  2.565E+00  1.200E+01  6.000E-02  1.855E+00
   1   11    7     6     3    8.5971E+01  3.3354E-01   8.5638E+01  0.000E+00  0.000E+00  0.000E+00  1.03620E+03  2.559E+00  1.200E+01  6.000E-02  1.853E+00
   1   12    7     6     4    8.5638E+01  3.3318E-01   8.5305E+01  0.000E+00  0.000E+00  0.000E+00  1.03164E+03  2.553E+00  1.200E+01  6.000E-02  1.851E+00
   1   13    7     6     5    8.5305E+01  3.1244E-02   8.5273E+01  0.000E+00  0.000E+00  0.000E+00  1.02846E+03  2.550E+00  1.200E+01  2.400E-02  4.339E-01
   1   14    9     7     1    1.5000E+02  1.3351E+00   1.4866E+02  0.000E+00  0.000E+00  0.000E+00  1.03987E+03  2.288E+00  5.529E+01  5.593E-01  7.957E-01
   1   13    8     7     2    1.4866E+02  1.8170E+00   1.4685E+02  0.000E+00  0.000E+00  0.000E+00  1.03478E+03  2.279E+00  5.526E+01  6.148E-01  9.852E-01
   1   13    7     7     3    1.4685E+02  1.4146E+00   1.4543E+02  0.000E+00  0.000E+00  0.000E+00  1.02969E+03  2.271E+00  5.522E+01  5.585E-01  8.443E-01
   1   13    6     8     1    2.3071E+02  1.1122E+00   2.2959E+02  0.000E+00  0.000E+00  0.000E+00  1.02518E+03  3.307E+00  4.796E+01  4.887E-01  7.586E-01
   1   13    5     8     2    2.2959E+02  3.0765E-01   2.2929E+02  0.000E+00  0.000E+00  0.000E+00  1.01893E+03  3.304E+00  4.790E+01  4.881E-01  2.101E-01
   1   13    4     8     3    2.2929E+02 -1.9176E+00   2.3120E+02  0.000E+00  0.000E+00  0.000E+00  1.01268E+03  3.308E+00  4.796E+01  4.888E+00 -1.308E-01
   1   13    3     8     4    2.3120E+02 -3.1714E+00   2.3438E+02  0.000E+00  0.000E+00  0.000E+00  1.00645E+03  3.322E+00  4.816E+01  4.908E+00 -2.154E-01
   1   13    2     8     5    2.3438E+02 -2.2687E+00   2.3664E+02  0.000E+00  0.000E+00  0.000E+00  1.00021E+03  3.336E+00  4.837E+01  4.929E+00 -1.534E-01
   1   13    1     8     6    2.3664E+02 -1.5654E+00   2.3821E+02  0.000E+00  0.000E+00  0.000E+00  9.95221E+02  3.346E+00  4.852E+01  2.967E+00 -1.759E-01
   1    8    6     9     1    7.8821E-04  0.0000E+00   7.8821E-04  0.000E+00  0.000E+00  0.000E+00  1.07876E+03  6.581E-03  4.000E+00  0.000E+00  1.002E+00
   1    8    5     9     2    7.8821E-04  0.0000E+00   7.8821E-04  0.000E+00  0.000E+00  0.000E+00  1.07826E+03  6.581E-03  4.000E+00  0.000E+00  1.002E+00



 UBDSV3 SAVING "           GW ET" ON UNIT  61 AT TIME STEP 15, STRESS PERIOD   7
 UBDSV3 SAVING "    UZF RECHARGE" ON UNIT  61 AT TIME STEP 15, STRESS PERIOD   7
 UBDSV3 SAVING " SURFACE LEAKAGE" ON UNIT  61 AT TIME STEP 15, STRESS PERIOD   7
 UBDSV3 SAVING "       HORT+DUNN" ON UNIT  61 AT TIME STEP 15, STRESS PERIOD   7
 UBDSV3 SAVING "  STORAGE CHANGE" ON UNIT  61 AT TIME STEP 15, STRESS PERIOD   7


UNSATURATED ZONE PACKAGE VOLUMETRIC BUDGET FOR  TIME STEP    15 STRESS PERIOD    7
  ------------------------------------------------------------------------------



     CUMULATIVE VOLUMES      L**3       RATES FOR THIS TIME STEP      L**3/T
     ------------------                 ------------------------

           IN:                                      IN:
           ---                                      ---
        INFILTRATION =    66380148.2551          INFILTRATION =           0.8481

          OUT:                                     OUT:
          ----                                     ----
              UZF ET =    19774595.3894                UZF ET =           5.3847
        UZF RECHARGE =     6504028.6801          UZF RECHARGE =           0.3132

            IN - OUT =    40101524.1855              IN - OUT =          -4.8499

          STORAGE:                                 STORAGE:
          --------                                 --------
      STORAGE CHANGE =    40119848.1836        STORAGE CHANGE =          -4.8499

 PERCENT DISCREPANCY IS DIFFERENCE BETWEEN IN-OUT MINUS CHANGE IN STORAGE
 DIVIDED BY THE AVERAGE OF IN AND OUT TIMES 100

 PERCENT DISCREPANCY =          -0.01     PERCENT DISCREPANCY =           0.00






 

            AWU WELLS     PERIOD    7   STEP  15
 AWU WELL      1   LAYER   1   ROW     6   COL     4   RATE     0.00000    
 AWU WELL      2   LAYER   1   ROW     6   COL     5   RATE     0.00000    
 AWU WELL      3   LAYER   1   ROW     7   COL     4   RATE     0.00000    
 AWU WELL      4   LAYER   1   ROW     7   COL     5   RATE     0.00000    
 AWU WELL      5   LAYER   1   ROW     8   COL     4   RATE     0.00000    
 AWU WELL      6   LAYER   1   ROW     8   COL     5   RATE     0.00000    
 
 

   DIVERSION SEGMENTS     PERIOD    7   STEP  15
 SEGMENT      9   RATE    7.882101E-04
 
 

        SW IRRIGATION     PERIOD    7   STEP  15
 SEGMENT      9   ROW     6   COL     4   RATE    9.852821E-05
 SEGMENT      9   ROW     6   COL     5   RATE    9.852821E-05
 SEGMENT      9   ROW     7   COL     4   RATE    9.852821E-05
 SEGMENT      9   ROW     7   COL     5   RATE    9.852821E-05
 SEGMENT      9   ROW     8   COL     4   RATE    9.852821E-05
 SEGMENT      9   ROW     8   COL     5   RATE    9.852821E-05
 
 

        GW IRRIGATION     PERIOD    7   STEP  15
 AWU WELL      1   ROW     6   COL     4   RATE     0.00000    
 AWU WELL      2   ROW     6   COL     5   RATE     0.00000    
 AWU WELL      3   ROW     7   COL     4   RATE     0.00000    
 AWU WELL      4   ROW     7   COL     5   RATE     0.00000    
 AWU WELL      5   ROW     8   COL     4   RATE     0.00000    
 AWU WELL      6   ROW     8   COL     5   RATE     0.00000    
 
1
  VOLUMETRIC BUDGET FOR ENTIRE MODEL AT END OF TIME STEP   15, STRESS PERIOD   7
  ------------------------------------------------------------------------------

     CUMULATIVE VOLUMES      L**3       RATES FOR THIS TIME STEP      L**3/T
     ------------------                 ------------------------

           IN:                                      IN:
           ---                                      ---
               AWU WELLS =    33350460.0000                 AWU WELLS =           0.0000
      DIVERSION SEGMENTS =    20706428.0000        DIVERSION SEGMENTS =       7.8821E-04
           GW IRRIGATION =           0.0000             GW IRRIGATION =           0.0000
           SW IRRIGATION =           0.0000             SW IRRIGATION =           0.0000
        SYSTEM LOSSES GW =           0.0000          SYSTEM LOSSES GW =           0.0000
        SYSTEM LOSSES SW =           0.0000          SYSTEM LOSSES SW =           0.0000

                TOTAL IN =    54056888.0000                  TOTAL IN =       7.8821E-04

          OUT:                                     OUT:
          ----                                     ----
               AWU WELLS =           0.0000                 AWU WELLS =           0.0000
      DIVERSION SEGMENTS =           0.0000        DIVERSION SEGMENTS =           0.0000
           GW IRRIGATION =    33350460.0000             GW IRRIGATION =           0.0000
           SW IRRIGATION =    20706840.0000             SW IRRIGATION =       7.8823E-04
        SYSTEM LOSSES GW =           0.0000          SYSTEM LOSSES GW =           0.0000
        SYSTEM LOSSES SW =           0.0000          SYSTEM LOSSES SW =           0.0000

               TOTAL OUT =    54057300.0000                 TOTAL OUT =       7.8823E-04

                IN - OUT =        -412.0000                  IN - OUT =      -1.5716E-08

     PERCENT DISCREPANCY =          -0.00         PERCENT DISCREPANCY =          -0.00



1
  VOLUMETRIC BUDGET FOR ENTIRE MODEL AT END OF TIME STEP   15, STRESS PERIOD   7
  ------------------------------------------------------------------------------

     CUMULATIVE VOLUMES      L**3       RATES FOR THIS TIME STEP      L**3/T
     ------------------                 ------------------------

           IN:                                      IN:
           ---                                      ---
             STORAGE     =    57922908.0000               STORAGE     =           1.7498
       CONSTANT HEAD     =           0.0000         CONSTANT HEAD     =           0.0000
     HEAD DEP BOUNDS     =     4154948.2500       HEAD DEP BOUNDS     =           0.2857
      STREAM LEAKAGE     =   185575152.0000        STREAM LEAKAGE     =          13.7123
        UZF RECHARGE     =     6504025.0000          UZF RECHARGE     =           0.3132
               GW ET     =           0.0000                 GW ET     =           0.0000
     SURFACE LEAKAGE     =           0.0000       SURFACE LEAKAGE     =           0.0000
           AWU WELLS     =           0.0000             AWU WELLS     =           0.0000

                TOTAL IN =   254157040.0000                  TOTAL IN =          16.0611

          OUT:                                     OUT:
          ----                                     ----
             STORAGE     =    63151876.0000               STORAGE     =           3.6360
       CONSTANT HEAD     =           0.0000         CONSTANT HEAD     =           0.0000
     HEAD DEP BOUNDS     =     4257568.0000       HEAD DEP BOUNDS     =           0.2945
      STREAM LEAKAGE     =   144894848.0000        STREAM LEAKAGE     =           8.9231
        UZF RECHARGE     =           0.0000          UZF RECHARGE     =           0.0000
               GW ET     =     8510197.0000                 GW ET     =           3.2075
     SURFACE LEAKAGE     =           0.0000       SURFACE LEAKAGE     =           0.0000
           AWU WELLS     =    33350460.0000             AWU WELLS     =           0.0000

               TOTAL OUT =   254164944.0000                 TOTAL OUT =          16.0612

                IN - OUT =       -7904.0000                  IN - OUT =      -9.7275E-05

     PERCENT DISCREPANCY =          -0.00         PERCENT DISCREPANCY =          -0.00






         TIME SUMMARY AT END OF TIME STEP   15 IN STRESS PERIOD    7
                    SECONDS     MINUTES      HOURS       DAYS        YEARS
                    -----------------------------------------------------------
   TIME STEP LENGTH  87600.      1460.0      24.333      1.0139     2.77588E-03
 STRESS PERIOD TIME 1.31400E+06  21900.      365.00      15.208     4.16381E-02
         TOTAL TIME 1.45404E+07 2.42340E+05  4039.0      168.29     0.46076    
1
 
 SOLVING FOR HEAD 
                                                   Max.-Head-Change                         Max.-Flux-Residual
  Residual-Control   Outer-Iter.   Inner-Iter.     Column Row Layer    Maximum-Head-Change  Column Row Layer    Maximum-Flux-Residual          L2-NORM 
          0                 1           2             4   13     1      -0.2321539355E-01       4   13    1        -0.1333106598E+01      0.2526071875E+01
          0                 2           2             4   13     1       0.2262096825E-01       4   13    1         0.1347459496E+01      0.2339329494E+01
          0                 3           2             4   13     1      -0.1517397101E-02       4   13    1        -0.9294832283E-01      0.1565824559E+00
          0                 4           1             4   13     1       0.5882904629E-04       4   13    1         0.3705133362E-02      0.5949611543E-02

    ------------------------------------------------
       NWT REQUIRED            4 OUTER ITERATIONS 
       AND A TOTAL OF          7 INNER ITERATIONS.
    ------------------------------------------------

 NO OUTPUT CONTROL FOR STRESS PERIOD    7   TIME STEP   16
 
 SOLVING FOR HEAD 
                                                   Max.-Head-Change                         Max.-Flux-Residual
  Residual-Control   Outer-Iter.   Inner-Iter.     Column Row Layer    Maximum-Head-Change  Column Row Layer    Maximum-Flux-Residual          L2-NORM 
          0                 1           2             4   13     1      -0.1657775741E-01       4   13    1        -0.9536369997E+00      0.1914839237E+01
          0                 2           2             4   13     1       0.1570895450E-01       4   13    1         0.9356614319E+00      0.1626747511E+01
          0                 3           2             4   13     1      -0.1053679554E-02       4   13    1        -0.6454054811E-01      0.1089330496E+00
          0                 4           1             4   13     1       0.4081019404E-04       4   13    1         0.2569953754E-02      0.4137354521E-02

    ------------------------------------------------
       NWT REQUIRED            4 OUTER ITERATIONS 
       AND A TOTAL OF          7 INNER ITERATIONS.
    ------------------------------------------------

 NO OUTPUT CONTROL FOR STRESS PERIOD    7   TIME STEP   17
 
 SOLVING FOR HEAD 
                                                   Max.-Head-Change                         Max.-Flux-Residual
  Residual-Control   Outer-Iter.   Inner-Iter.     Column Row Layer    Maximum-Head-Change  Column Row Layer    Maximum-Flux-Residual          L2-NORM 
          0                 1           2             4    7     1       0.5815567416E-02       4    7    1         0.3063212390E+00      0.8832039060E+00
          0                 2           2             4    7     1      -0.5656963983E-03       4    7    1        -0.3063216032E-01      0.7236089053E-01
          0                 3           1             4    7     1       0.3852182497E-04       4    7    1         0.2144251807E-02      0.5133356598E-02

    ------------------------------------------------
       NWT REQUIRED            3 OUTER ITERATIONS 
       AND A TOTAL OF          5 INNER ITERATIONS.
    ------------------------------------------------

 NO OUTPUT CONTROL FOR STRESS PERIOD    7   TIME STEP   18
 
 SOLVING FOR HEAD 
                                                   Max.-Head-Change                         Max.-Flux-Residual
  Residual-Control   Outer-Iter.   Inner-Iter.     Column Row Layer    Maximum-Head-Change  Column Row Layer    Maximum-Flux-Residual          L2-NORM 
          0                 1           2             4    7     1       0.5740790097E-02       4    7    1         0.3023986796E+00      0.8695296905E+00
          0                 2           2             4    7     1      -0.5584225946E-03       4    7    1        -0.3023990397E-01      0.7080562428E-01
          0                 3           1             4    7     1       0.3802650592E-04       4    7    1         0.2116793857E-02      0.5028941885E-02

    ------------------------------------------------
       NWT REQUIRED            3 OUTER ITERATIONS 
       AND A TOTAL OF          5 INNER ITERATIONS.
    ------------------------------------------------

 NO OUTPUT CONTROL FOR STRESS PERIOD    7   TIME STEP   19
 
 SOLVING FOR HEAD 
                                                   Max.-Head-Change                         Max.-Flux-Residual
  Residual-Control   Outer-Iter.   Inner-Iter.     Column Row Layer    Maximum-Head-Change  Column Row Layer    Maximum-Flux-Residual          L2-NORM 
          0                 1           2             4    7     1       0.5666866980E-02       4    7    1         0.2985185980E+00      0.8567692737E+00
          0                 2           2             4    7     1      -0.5512318809E-03       4    7    1        -0.2985189538E-01      0.6931851126E-01
          0                 3           1             4    7     1       0.3753684572E-04       4    7    1         0.2089633265E-02      0.4929110674E-02

    ------------------------------------------------
       NWT REQUIRED            3 OUTER ITERATIONS 
       AND A TOTAL OF          5 INNER ITERATIONS.
    ------------------------------------------------

 NO OUTPUT CONTROL FOR STRESS PERIOD    7   TIME STEP   20
 
 SOLVING FOR HEAD 
                                                   Max.-Head-Change                         Max.-Flux-Residual
  Residual-Control   Outer-Iter.   Inner-Iter.     Column Row Layer    Maximum-Head-Change  Column Row Layer    Maximum-Flux-Residual          L2-NORM 
          0                 1           2             4    7     1       0.5593550032E-02       4    7    1         0.2946680158E+00      0.8448385056E+00
          0                 2           2             4    7     1      -0.5441001307E-03       4    7    1        -0.2946683671E-01      0.6797510462E-01
          0                 3           1             4    7     1       0.3705119974E-04       4    7    1         0.2062679136E-02      0.4839662801E-02

    ------------------------------------------------
       NWT REQUIRED            3 OUTER ITERATIONS 
       AND A TOTAL OF          5 INNER ITERATIONS.
    ------------------------------------------------

 NO OUTPUT CONTROL FOR STRESS PERIOD    7   TIME STEP   21
 
 SOLVING FOR HEAD 
                                                   Max.-Head-Change                         Max.-Flux-Residual
  Residual-Control   Outer-Iter.   Inner-Iter.     Column Row Layer    Maximum-Head-Change  Column Row Layer    Maximum-Flux-Residual          L2-NORM 
          0                 1           2             4    7     1       0.5520874732E-02       4    7    1         0.2908488871E+00      0.8336781677E+00
          0                 2           2             4    7     1      -0.5370325383E-03       4    7    1        -0.2908492334E-01      0.6669390400E-01
          0                 3           1             4    7     1       0.3656992275E-04       4    7    1         0.2035945181E-02      0.4753230729E-02

    ------------------------------------------------
       NWT REQUIRED            3 OUTER ITERATIONS 
       AND A TOTAL OF          5 INNER ITERATIONS.
    ------------------------------------------------

 NO OUTPUT CONTROL FOR STRESS PERIOD    7   TIME STEP   22
 
 SOLVING FOR HEAD 
                                                   Max.-Head-Change                         Max.-Flux-Residual
  Residual-Control   Outer-Iter.   Inner-Iter.     Column Row Layer    Maximum-Head-Change  Column Row Layer    Maximum-Flux-Residual          L2-NORM 
          0                 1           2             4    7     1       0.5449370103E-02       4    7    1         0.2870926100E+00      0.8231844398E+00
          0                 2           2             4    7     1      -0.5300753376E-03       4    7    1        -0.2870929516E-01      0.6547531926E-01
          0                 3           1             4    7     1       0.3609616345E-04       4    7    1         0.2009651212E-02      0.4671292992E-02

    ------------------------------------------------
       NWT REQUIRED            3 OUTER ITERATIONS 
       AND A TOTAL OF          5 INNER ITERATIONS.
    ------------------------------------------------

 NO OUTPUT CONTROL FOR STRESS PERIOD    7   TIME STEP   23
 
 SOLVING FOR HEAD 
                                                   Max.-Head-Change                         Max.-Flux-Residual
  Residual-Control   Outer-Iter.   Inner-Iter.     Column Row Layer    Maximum-Head-Change  Column Row Layer    Maximum-Flux-Residual          L2-NORM 
          0                 1           2             5    8     1      -0.5148525592E-01       5    8    1        -0.2760001936E+01      0.6771060485E+01
          0                 2           2             5    8     1       0.5007042007E-02       5    8    1         0.2759597983E+00      0.6741607341E+00
          0                 3           2             5    8     1      -0.3415684155E-03       5    8    1        -0.1935158409E-01      0.4724284822E-01
          0                 4           1             5    8     1       0.1300121692E-04       5    8    1         0.7571483520E-03      0.1851667258E-02

    ------------------------------------------------
       NWT REQUIRED            4 OUTER ITERATIONS 
       AND A TOTAL OF          7 INNER ITERATIONS.
    ------------------------------------------------

 NO OUTPUT CONTROL FOR STRESS PERIOD    7   TIME STEP   24
 
 SOLVING FOR HEAD 
                                                   Max.-Head-Change                         Max.-Flux-Residual
  Residual-Control   Outer-Iter.   Inner-Iter.     Column Row Layer    Maximum-Head-Change  Column Row Layer    Maximum-Flux-Residual          L2-NORM 
          0                 1           2             4   13     1      -0.2129588581E-01       4   13    1        -0.1223056373E+01      0.2349899717E+01
          0                 2           2             4   13     1       0.2258514986E-01       4   13    1         0.1345347568E+01      0.2335182225E+01
          0                 3           2             4   13     1      -0.1515082906E-02       4   13    1        -0.9279531757E-01      0.1562483968E+00
          0                 4           1             4   13     1       0.5873379052E-04       4   13    1         0.3698698709E-02      0.5930479924E-02

    ------------------------------------------------
       NWT REQUIRED            4 OUTER ITERATIONS 
       AND A TOTAL OF          7 INNER ITERATIONS.
    ------------------------------------------------

 NO OUTPUT CONTROL FOR STRESS PERIOD    7   TIME STEP   25
 
 SOLVING FOR HEAD 
                                                   Max.-Head-Change                         Max.-Flux-Residual
  Residual-Control   Outer-Iter.   Inner-Iter.     Column Row Layer    Maximum-Head-Change  Column Row Layer    Maximum-Flux-Residual          L2-NORM 
          0                 1           2             4   13     1      -0.2131387560E-01       4   13    1        -0.1224194116E+01      0.2342895446E+01
          0                 2           2             4   13     1       0.2258824425E-01       4   13    1         0.1345539430E+01      0.2335143135E+01
          0                 3           2             4   13     1      -0.1515276756E-02       4   13    1        -0.9280770795E-01      0.1562450268E+00
          0                 4           1             4   13     1       0.5873093133E-04       4   13    1         0.3698545375E-02      0.5933283100E-02

    ------------------------------------------------
       NWT REQUIRED            4 OUTER ITERATIONS 
       AND A TOTAL OF          7 INNER ITERATIONS.
    ------------------------------------------------

 NO OUTPUT CONTROL FOR STRESS PERIOD    7   TIME STEP   26
 
 SOLVING FOR HEAD 
                                                   Max.-Head-Change                         Max.-Flux-Residual
  Residual-Control   Outer-Iter.   Inner-Iter.     Column Row Layer    Maximum-Head-Change  Column Row Layer    Maximum-Flux-Residual          L2-NORM 
          0                 1           2             4   13     1      -0.2132852534E-01       4   13    1        -0.1225132387E+01      0.2336257184E+01
          0                 2           2             4   13     1       0.2259110139E-01       4   13    1         0.1345717192E+01      0.2335114416E+01
          0                 3           2             4   13     1      -0.1515473845E-02       4   13    1        -0.9282029818E-01      0.1562434966E+00
          0                 4           1             4   13     1       0.5873099062E-04       4   13    1         0.3698574394E-02      0.5932460568E-02

    ------------------------------------------------
       NWT REQUIRED            4 OUTER ITERATIONS 
       AND A TOTAL OF          7 INNER ITERATIONS.
    ------------------------------------------------

 NO OUTPUT CONTROL FOR STRESS PERIOD    7   TIME STEP   27
 
 SOLVING FOR HEAD 
                                                   Max.-Head-Change                         Max.-Flux-Residual
  Residual-Control   Outer-Iter.   Inner-Iter.     Column Row Layer    Maximum-Head-Change  Column Row Layer    Maximum-Flux-Residual          L2-NORM 
          0                 1           2             4   13     1      -0.2134029037E-01       4   13    1        -0.1225897982E+01      0.2329961918E+01
          0                 2           2             4   13     1       0.2259374460E-01       4   13    1         0.1345882250E+01      0.2335088112E+01
          0                 3           2             4   13     1      -0.1515642594E-02       4   13    1        -0.9283116335E-01      0.1562404322E+00
          0                 4           1             4   13     1       0.5873169693E-04       4   13    1         0.3698633891E-02      0.5932436157E-02

    ------------------------------------------------
       NWT REQUIRED            4 OUTER ITERATIONS 
       AND A TOTAL OF          7 INNER ITERATIONS.
    ------------------------------------------------

 NO OUTPUT CONTROL FOR STRESS PERIOD    7   TIME STEP   28
 
 SOLVING FOR HEAD 
                                                   Max.-Head-Change                         Max.-Flux-Residual
  Residual-Control   Outer-Iter.   Inner-Iter.     Column Row Layer    Maximum-Head-Change  Column Row Layer    Maximum-Flux-Residual          L2-NORM 
          0                 1           2             4    7     1      -0.6283366176E-01       5    8    1        -0.3322779218E+01      0.8400866051E+01
          0                 2           2             4    7     1      -0.1168417176E+00       4    7    1        -0.6105432807E+01      0.1495082800E+02
          0                 3           2             4    7     1       0.1136543244E-01       4    7    1         0.6105383327E+00      0.1494969900E+01
          0                 4           2             4    7     1      -0.7739446027E-03       4    7    1        -0.4273774858E-01      0.1046449641E+00
          0                 5           1             4    7     1       0.3079597618E-04       4    7    1         0.1747976127E-02      0.4279959205E-02

    ------------------------------------------------
       NWT REQUIRED            5 OUTER ITERATIONS 
       AND A TOTAL OF          9 INNER ITERATIONS.
    ------------------------------------------------

 NO OUTPUT CONTROL FOR STRESS PERIOD    7   TIME STEP   29
 
 SOLVING FOR HEAD 
                                                   Max.-Head-Change                         Max.-Flux-Residual
  Residual-Control   Outer-Iter.   Inner-Iter.     Column Row Layer    Maximum-Head-Change  Column Row Layer    Maximum-Flux-Residual          L2-NORM 
          0                 1           2             4    7     1      -0.1849896157E+00       4    7    1        -0.9669695800E+01      0.2352107739E+02
          0                 2           2             4    7     1       0.1799421337E-01       4    7    1         0.9669551043E+00      0.2351055080E+01
          0                 3           2             4    7     1      -0.1225341489E-02       4    7    1        -0.6768702354E-01      0.1645300768E+00
          0                 4           1             4    7     1       0.4875747428E-04       4    7    1         0.2768402501E-02      0.6725627434E-02

    ------------------------------------------------
       NWT REQUIRED            4 OUTER ITERATIONS 
       AND A TOTAL OF          7 INNER ITERATIONS.
    ------------------------------------------------

 NO OUTPUT CONTROL FOR STRESS PERIOD    7   TIME STEP   30



 STREAM LISTING     PERIOD      7   STEP       30

 LAYER ROW COL. STREAM  RCH.  FLOW INTO     FLOW TO   FLOW OUT OF   OVRLND.     DIRECT     STREAM       STREAM     STREAM     STREAM   STREAMBED  STREAMBED
                SEG.NO.  NO.  STRM. RCH.    AQUIFER    STRM. RCH.    RUNOFF     PRECIP       ET          HEAD       DEPTH      WIDTH   CONDCTNC.   GRADIENT

   1    1    1     1     1    7.8032E+01  4.2934E-01   7.7603E+01  0.000E+00  0.000E+00  0.000E+00  1.09476E+03  1.713E+00  2.025E+01  9.111E-02  1.571E+00
   1    2    2     1     2    7.7603E+01  6.6596E-01   7.6937E+01  0.000E+00  0.000E+00  0.000E+00  1.08977E+03  1.710E+00  2.020E+01  1.414E-01  1.570E+00
   1    3    3     1     3    7.6937E+01  5.6898E-01   7.6368E+01  0.000E+00  0.000E+00  0.000E+00  1.08413E+03  1.707E+00  2.014E+01  1.209E-01  1.569E+00
   1    3    4     1     4    7.6368E+01  5.2479E-01   7.5843E+01  0.000E+00  0.000E+00  0.000E+00  1.07911E+03  1.705E+00  2.010E+01  1.115E-01  1.568E+00
   1    4    5     2     1    7.3843E+01  4.1409E-01   7.3429E+01  0.000E+00  0.000E+00  0.000E+00  1.07424E+03  2.309E+00  1.200E+01  7.800E-02  1.770E+00
   1    5    6     2     2    7.3429E+01  3.1812E-01   7.3111E+01  0.000E+00  0.000E+00  0.000E+00  1.06881E+03  2.302E+00  1.200E+01  6.000E-02  1.767E+00
   1    6    6     2     3    7.3111E+01  3.1776E-01   7.2793E+01  0.000E+00  0.000E+00  0.000E+00  1.06409E+03  2.296E+00  1.200E+01  6.000E-02  1.765E+00
   1    7    6     2     4    7.2793E+01  3.1740E-01   7.2476E+01  0.000E+00  0.000E+00  0.000E+00  1.05937E+03  2.290E+00  1.200E+01  6.000E-02  1.763E+00
   1    8    6     2     5    7.2476E+01  3.1704E-01   7.2159E+01  0.000E+00  0.000E+00  0.000E+00  1.05464E+03  2.284E+00  1.200E+01  6.000E-02  1.761E+00
   1    3    5     3     1    2.0000E+00  2.8252E-01   1.7175E+00  0.000E+00  0.000E+00  0.000E+00  1.07555E+03  1.909E+00  9.636E+00  7.227E-02  1.955E+00
   1    3    6     3     2    1.7175E+00  2.4905E-01   1.4684E+00  0.000E+00  0.000E+00  0.000E+00  1.07264E+03  1.727E+00  8.909E+00  6.682E-02  1.864E+00
   1    3    7     3     3    1.4684E+00  1.9718E-01   1.2712E+00  0.000E+00  0.000E+00  0.000E+00  1.06987E+03  1.555E+00  8.218E+00  5.547E-02  1.777E+00
   1    4    8     3     4    1.2712E+00  2.2567E-01   1.0456E+00  0.000E+00  0.000E+00  0.000E+00  1.06682E+03  1.364E+00  7.455E+00  6.709E-02  1.682E+00
   1    5    8     3     5    1.0456E+00  1.5790E-01   8.8768E-01  0.000E+00  0.000E+00  0.000E+00  1.06362E+03  1.164E+00  6.655E+00  4.991E-02  1.582E+00
   1    6    8     3     6    8.8768E-01  5.5980E-02   8.3170E-01  0.000E+00  0.000E+00  0.000E+00  1.06158E+03  1.036E+00  6.145E+00  1.844E-02  1.518E+00
   1    5   10     4     1    1.0000E+01  9.0919E-02   9.9091E+00  0.000E+00  0.000E+00  0.000E+00  1.07836E+03  6.368E-01  1.000E+01  2.500E-02  1.212E+00
   1    5    9     4     2    9.9091E+00  1.8158E-01   9.7275E+00  0.000E+00  0.000E+00  0.000E+00  1.07154E+03  6.315E-01  1.000E+01  5.000E-02  1.211E+00
   1    6    8     4     3    9.7275E+00  1.2689E-01   9.6006E+00  0.000E+00  0.000E+00  0.000E+00  1.06381E+03  6.256E-01  1.000E+01  3.500E-02  1.209E+00
   1    6    8     5     1    1.0432E+01  2.2686E-01   1.0205E+01  0.000E+00  0.000E+00  0.000E+00  1.05868E+03  6.790E-01  1.542E+01  6.166E-02  1.226E+00
   1    7    7     5     2    1.0205E+01  2.7894E-01   9.9265E+00  0.000E+00  0.000E+00  0.000E+00  1.05417E+03  6.732E-01  1.519E+01  7.594E-02  1.224E+00
   1    8    7     5     3    9.9265E+00  1.9221E-01   9.7343E+00  0.000E+00  0.000E+00  0.000E+00  1.04992E+03  6.676E-01  1.497E+01  5.241E-02  1.223E+00
   1    8    6     5     4    9.7343E+00  1.3577E-01   9.5985E+00  0.000E+00  0.000E+00  0.000E+00  1.04691E+03  6.637E-01  1.482E+01  3.706E-02  1.221E+00
   1    9    6     6     1    2.6757E+01  2.5609E-01   2.6501E+01  0.000E+00  0.000E+00  0.000E+00  1.04400E+03  1.268E+00  1.200E+01  6.000E-02  1.423E+00
   1   10    7     6     2    2.6501E+01  2.5565E-01   2.6245E+01  0.000E+00  0.000E+00  0.000E+00  1.03944E+03  1.261E+00  1.200E+01  6.000E-02  1.420E+00
   1   11    7     6     3    2.6245E+01  2.5521E-01   2.5990E+01  0.000E+00  0.000E+00  0.000E+00  1.03489E+03  1.254E+00  1.200E+01  6.000E-02  1.418E+00
   1   12    7     6     4    2.5990E+01  2.5477E-01   2.5735E+01  0.000E+00  0.000E+00  0.000E+00  1.03034E+03  1.246E+00  1.200E+01  6.000E-02  1.415E+00
   1   13    7     6     5    2.5735E+01  9.8348E-07   2.5735E+01  0.000E+00  0.000E+00  0.000E+00  1.02715E+03  1.242E+00  1.200E+01  2.400E-02  1.366E-05
   1   14    9     7     1    1.5000E+02  1.3348E+00   1.4867E+02  0.000E+00  0.000E+00  0.000E+00  1.03987E+03  2.288E+00  5.529E+01  5.593E-01  7.955E-01
   1   13    8     7     2    1.4867E+02  1.8161E+00   1.4685E+02  0.000E+00  0.000E+00  0.000E+00  1.03478E+03  2.279E+00  5.526E+01  6.148E-01  9.847E-01
   1   13    7     7     3    1.4685E+02  1.4177E+00   1.4543E+02  0.000E+00  0.000E+00  0.000E+00  1.02969E+03  2.271E+00  5.522E+01  5.585E-01  8.462E-01
   1   13    6     8     1    1.7117E+02  8.5348E-01   1.7031E+02  0.000E+00  0.000E+00  0.000E+00  1.02483E+03  2.957E+00  4.288E+01  4.369E-01  6.511E-01
   1   13    5     8     2    1.7031E+02  1.4318E-01   1.7017E+02  0.000E+00  0.000E+00  0.000E+00  1.01858E+03  2.954E+00  4.283E+01  4.365E-01  1.094E-01
   1   13    4     8     3    1.7017E+02 -2.9614E+00   1.7313E+02  0.000E+00  0.000E+00  0.000E+00  1.01234E+03  2.963E+00  4.296E+01  4.378E+00 -2.255E-01
   1   13    3     8     4    1.7313E+02 -4.0856E+00   1.7722E+02  0.000E+00  0.000E+00  0.000E+00  1.00611E+03  2.986E+00  4.329E+01  4.411E+00 -3.087E-01
   1   13    2     8     5    1.7722E+02 -3.2475E+00   1.8046E+02  0.000E+00  0.000E+00  0.000E+00  9.99884E+02  3.009E+00  4.363E+01  4.446E+00 -2.435E-01
   1   13    1     8     6    1.8046E+02 -2.1143E+00   1.8258E+02  0.000E+00  0.000E+00  0.000E+00  9.94901E+02  3.026E+00  4.387E+01  2.682E+00 -2.627E-01
   1    8    6     9     1    5.5000E+01  0.0000E+00   5.5000E+01  0.000E+00  0.000E+00  0.000E+00  1.08505E+03  6.302E+00  4.000E+00  0.000E+00  3.101E+00
   1    8    5     9     2    5.5000E+01  0.0000E+00   5.5000E+01  0.000E+00  0.000E+00  0.000E+00  1.08455E+03  6.302E+00  4.000E+00  0.000E+00  3.101E+00





UNSATURATED ZONE PACKAGE VOLUMETRIC BUDGET FOR  TIME STEP    30 STRESS PERIOD    7
  ------------------------------------------------------------------------------



     CUMULATIVE VOLUMES      L**3       RATES FOR THIS TIME STEP      L**3/T
     ------------------                 ------------------------

           IN:                                      IN:
           ---                                      ---
        INFILTRATION =    91162109.3487          INFILTRATION =         115.8486

          OUT:                                     OUT:
          ----                                     ----
              UZF ET =    26487572.3868                UZF ET =           4.8353
        UZF RECHARGE =     6896754.3902          UZF RECHARGE =           0.2662

            IN - OUT =    57777782.5716              IN - OUT =         110.7471

          STORAGE:                                 STORAGE:
          --------                                 --------
      STORAGE CHANGE =    57798157.0340        STORAGE CHANGE =         110.7471

 PERCENT DISCREPANCY IS DIFFERENCE BETWEEN IN-OUT MINUS CHANGE IN STORAGE
 DIVIDED BY THE AVERAGE OF IN AND OUT TIMES 100

 PERCENT DISCREPANCY =          -0.01     PERCENT DISCREPANCY =           0.00






1
  VOLUMETRIC BUDGET FOR ENTIRE MODEL AT END OF TIME STEP   30, STRESS PERIOD   7
  ------------------------------------------------------------------------------

     CUMULATIVE VOLUMES      L**3       RATES FOR THIS TIME STEP      L**3/T
     ------------------                 ------------------------

           IN:                                      IN:
           ---                                      ---
               AWU WELLS =    45413264.0000                 AWU WELLS =          60.0000
      DIVERSION SEGMENTS =    32311848.0000        DIVERSION SEGMENTS =          55.0000
           GW IRRIGATION =           0.0000             GW IRRIGATION =           0.0000
           SW IRRIGATION =           0.0000             SW IRRIGATION =           0.0000
        SYSTEM LOSSES GW =           0.0000          SYSTEM LOSSES GW =           0.0000
        SYSTEM LOSSES SW =           0.0000          SYSTEM LOSSES SW =           0.0000

                TOTAL IN =    77725112.0000                  TOTAL IN =         115.0000

          OUT:                                     OUT:
          ----                                     ----
               AWU WELLS =           0.0000                 AWU WELLS =           0.0000
      DIVERSION SEGMENTS =           0.0000        DIVERSION SEGMENTS =           0.0000
           GW IRRIGATION =    45413264.0000             GW IRRIGATION =          60.0000
           SW IRRIGATION =    32312492.0000             SW IRRIGATION =          55.0011
        SYSTEM LOSSES GW =           0.0000          SYSTEM LOSSES GW =           0.0000
        SYSTEM LOSSES SW =           0.0000          SYSTEM LOSSES SW =           0.0000

               TOTAL OUT =    77725760.0000                 TOTAL OUT =         115.0011

                IN - OUT =        -648.0000                  IN - OUT =      -1.0986E-03

     PERCENT DISCREPANCY =          -0.00         PERCENT DISCREPANCY =          -0.00



1
  VOLUMETRIC BUDGET FOR ENTIRE MODEL AT END OF TIME STEP   30, STRESS PERIOD   7
  ------------------------------------------------------------------------------

     CUMULATIVE VOLUMES      L**3       RATES FOR THIS TIME STEP      L**3/T
     ------------------                 ------------------------

           IN:                                      IN:
           ---                                      ---
             STORAGE     =    72265088.0000               STORAGE     =          64.0038
       CONSTANT HEAD     =           0.0000         CONSTANT HEAD     =           0.0000
     HEAD DEP BOUNDS     =     4530359.5000       HEAD DEP BOUNDS     =           0.2857
      STREAM LEAKAGE     =   203450480.0000        STREAM LEAKAGE     =          12.8619
        UZF RECHARGE     =     6896750.5000          UZF RECHARGE     =           0.2662
               GW ET     =           0.0000                 GW ET     =           0.0000
     SURFACE LEAKAGE     =           0.0000       SURFACE LEAKAGE     =           0.0000
           AWU WELLS     =           0.0000             AWU WELLS     =           0.0000

                TOTAL IN =   287142656.0000                  TOTAL IN =          77.4176

          OUT:                                     OUT:
          ----                                     ----
             STORAGE     =    67283528.0000               STORAGE     =           1.5564
       CONSTANT HEAD     =           0.0000         CONSTANT HEAD     =           0.0000
     HEAD DEP BOUNDS     =     4643254.0000       HEAD DEP BOUNDS     =           0.2922
      STREAM LEAKAGE     =   157108160.0000        STREAM LEAKAGE     =          12.4088
        UZF RECHARGE     =           0.0000          UZF RECHARGE     =           0.0000
               GW ET     =    12702358.0000                 GW ET     =           3.1605
     SURFACE LEAKAGE     =           0.0000       SURFACE LEAKAGE     =           0.0000
           AWU WELLS     =    45413264.0000             AWU WELLS     =          60.0000

               TOTAL OUT =   287150560.0000                 TOTAL OUT =          77.4178

                IN - OUT =       -7904.0000                  IN - OUT =      -1.9836E-04

     PERCENT DISCREPANCY =          -0.00         PERCENT DISCREPANCY =          -0.00






         TIME SUMMARY AT END OF TIME STEP   30 IN STRESS PERIOD    7
                    SECONDS     MINUTES      HOURS       DAYS        YEARS
                    -----------------------------------------------------------
   TIME STEP LENGTH  87600.      1460.0      24.333      1.0139     2.77588E-03
 STRESS PERIOD TIME 2.62800E+06  43800.      730.00      30.417     8.32763E-02
         TOTAL TIME 1.58544E+07 2.64240E+05  4404.0      183.50     0.50240    
1
1
                            STRESS PERIOD NO.    8, LENGTH =   2628000.    
                            -----------------------------------------------

                              NUMBER OF TIME STEPS =    30

                               MULTIPLIER FOR DELT =     1.000

                            INITIAL TIME STEP SIZE =   87600.00    

 REUSING NON-PARAMETER GHB CELLS FROM LAST STRESS PERIOD

      2 GHB CELLS

 REUSING STREAM SEGMENT DATA FROM LAST STRESS PERIOD



            AREAL INFILTRATION RATE
 READING ON UNIT   19 WITH FORMAT: (10F4.0)            

            1           2           3           4           5           6           7           8           9          10
 ........................................................................................................................
   1   1.0000E-10  2.0000E-10   0.000       0.000       0.000       0.000       0.000       0.000       0.000       0.000    
   2   2.0000E-10  1.0000E-10  2.0000E-10   0.000       0.000      8.0000E-10  8.0000E-10  5.0000E-10   0.000       0.000    
   3    0.000      5.0000E-10  1.0000E-10  1.0000E-10  8.0000E-10  8.0000E-10  5.0000E-10  5.0000E-10   0.000       0.000    
   4   8.0000E-10  5.0000E-10  1.0000E-10  1.0000E-10  1.0000E-10  1.0000E-10  1.0000E-10  1.0000E-10  2.0000E-10   0.000    
   5   8.0000E-10  5.0000E-10  1.0000E-10  1.0000E-10  1.0000E-10  1.0000E-10  1.0000E-10  1.0000E-10  1.0000E-10  1.0000E-10
   6   8.0000E-10  5.0000E-10  5.0000E-10  2.0000E-10  2.0000E-10  1.0000E-10  1.0000E-10  1.0000E-10  1.0000E-10  5.0000E-10
   7   8.0000E-10  5.0000E-10  5.0000E-10  2.0000E-10  2.0000E-10  1.0000E-10  1.0000E-10  2.0000E-10  2.0000E-10   0.000    
   8    0.000      5.0000E-10  5.0000E-10  2.0000E-10  2.0000E-10  1.0000E-10  1.0000E-10  2.0000E-10  5.0000E-10   0.000    
   9    0.000      5.0000E-10  5.0000E-10  2.0000E-10  2.0000E-10  1.0000E-10  1.0000E-10  2.0000E-10  5.0000E-10   0.000    
  10    0.000      5.0000E-10  5.0000E-10  2.0000E-10  2.0000E-10  1.0000E-10  1.0000E-10  2.0000E-10  5.0000E-10  8.0000E-10
  11    0.000      1.0000E-10  1.0000E-10  1.0000E-10  1.0000E-10  1.0000E-10  1.0000E-10  2.0000E-10  5.0000E-10   0.000    
  12   1.0000E-10  1.0000E-10  1.0000E-10  1.0000E-10  1.0000E-10  1.0000E-10  1.0000E-10  1.0000E-10  2.0000E-10   0.000    
  13   1.0000E-10  1.0000E-10  2.0000E-10  2.0000E-10  2.0000E-10  2.0000E-10  2.0000E-10  1.0000E-10  1.0000E-10   0.000    
  14    0.000      2.0000E-10  5.0000E-10  5.0000E-10  5.0000E-10  5.0000E-10  5.0000E-10  2.0000E-10  1.0000E-10   0.000    
  15    0.000       0.000      8.0000E-10  8.0000E-10  8.0000E-10  8.0000E-10   0.000       0.000       0.000       0.000    

                  ET RATE =  8.000000E-08

 USING ET EXTINCTION DEPTH FROM PREVIOUS STRESS PERIOD. CURRENT PERIOD IS:       8

 USING EXTINCTION WATER CONTENT FROM PREVIOUS STRESS PERIOD. CURRENT PERIOD IS:       8

 PROCESSING AWU STRESS PERIOD DATA

 READING AWU STRESS PERIOD DATA

 READING IRRIGATION STREAM

 READING IRRIGATION WELL

 READING SUPPLEMENTAL WEL

 END PROCESSING AWU STRESS PERIOD DATA OPTIONS
 
 SOLVING FOR HEAD 
                                                   Max.-Head-Change                         Max.-Flux-Residual
  Residual-Control   Outer-Iter.   Inner-Iter.     Column Row Layer    Maximum-Head-Change  Column Row Layer    Maximum-Flux-Residual          L2-NORM 
          0                 1           2             4    7     1      -0.1839435016E+00       4    7    1        -0.9619305304E+01      0.2323062748E+02
          0                 2           2             4    7     1       0.1789242494E-01       4    7    1         0.9619139736E+00      0.2321452027E+01
          0                 3           2             4    7     1      -0.1218410368E-02       4    7    1        -0.6733416392E-01      0.1624046909E+00
          0                 4           1             4    7     1       0.4848167644E-04       4    7    1         0.2753970401E-02      0.6637608172E-02

    ------------------------------------------------
       NWT REQUIRED            4 OUTER ITERATIONS 
       AND A TOTAL OF          7 INNER ITERATIONS.
    ------------------------------------------------

 OUTPUT CONTROL FOR STRESS PERIOD    8   TIME STEP    1
    PRINT BUDGET
    SAVE BUDGET
 UBDSV1 SAVING "         STORAGE" ON UNIT 102 AT TIME STEP  1, STRESS PERIOD   8
 UBDSV2 SAVING "   CONSTANT HEAD" ON UNIT 102 AT TIME STEP  1, STRESS PERIOD   8
 UBDSV1 SAVING "FLOW RIGHT FACE " ON UNIT 102 AT TIME STEP  1, STRESS PERIOD   8
 UBDSV1 SAVING "FLOW FRONT FACE " ON UNIT 102 AT TIME STEP  1, STRESS PERIOD   8

  HEAD DEP BOUNDS   PERIOD    8   STEP     1
 BOUNDARY      1   LAYER   1   ROW    13   COL     1   RATE   -0.291240    
 BOUNDARY      2   LAYER   1   ROW    14   COL     9   RATE    0.285692    



 STREAM LISTING     PERIOD      8   STEP        1

 LAYER ROW COL. STREAM  RCH.  FLOW INTO     FLOW TO   FLOW OUT OF   OVRLND.     DIRECT     STREAM       STREAM     STREAM     STREAM   STREAMBED  STREAMBED
                SEG.NO.  NO.  STRM. RCH.    AQUIFER    STRM. RCH.    RUNOFF     PRECIP       ET          HEAD       DEPTH      WIDTH   CONDCTNC.   GRADIENT

   1    1    1     1     1    7.5000E+01  4.2232E-01   7.4578E+01  0.000E+00  0.000E+00  0.000E+00  1.09475E+03  1.698E+00  1.998E+01  8.990E-02  1.566E+00
   1    2    2     1     2    7.4578E+01  6.5422E-01   7.3923E+01  0.000E+00  0.000E+00  0.000E+00  1.08975E+03  1.692E+00  1.992E+01  1.394E-01  1.564E+00
   1    3    3     1     3    7.3923E+01  5.5813E-01   7.3365E+01  0.000E+00  0.000E+00  0.000E+00  1.08410E+03  1.685E+00  1.985E+01  1.191E-01  1.562E+00
   1    3    4     1     4    7.3365E+01  5.1411E-01   7.2851E+01  0.000E+00  0.000E+00  0.000E+00  1.07909E+03  1.679E+00  1.980E+01  1.099E-01  1.560E+00
   1    4    5     2     1    7.0851E+01  4.0967E-01   7.0442E+01  0.000E+00  0.000E+00  0.000E+00  1.07419E+03  2.252E+00  1.200E+01  7.800E-02  1.751E+00
   1    5    6     2     2    7.0442E+01  3.1471E-01   7.0127E+01  0.000E+00  0.000E+00  0.000E+00  1.06875E+03  2.245E+00  1.200E+01  6.000E-02  1.748E+00
   1    6    6     2     3    7.0127E+01  3.1435E-01   6.9812E+01  0.000E+00  0.000E+00  0.000E+00  1.06403E+03  2.239E+00  1.200E+01  6.000E-02  1.746E+00
   1    7    6     2     4    6.9812E+01  3.1399E-01   6.9498E+01  0.000E+00  0.000E+00  0.000E+00  1.05931E+03  2.233E+00  1.200E+01  6.000E-02  1.744E+00
   1    8    6     2     5    6.9498E+01  3.1363E-01   6.9185E+01  0.000E+00  0.000E+00  0.000E+00  1.05459E+03  2.227E+00  1.200E+01  6.000E-02  1.742E+00
   1    3    5     3     1    2.0000E+00  2.8252E-01   1.7175E+00  0.000E+00  0.000E+00  0.000E+00  1.07555E+03  1.909E+00  9.636E+00  7.227E-02  1.955E+00
   1    3    6     3     2    1.7175E+00  2.4905E-01   1.4684E+00  0.000E+00  0.000E+00  0.000E+00  1.07264E+03  1.727E+00  8.909E+00  6.682E-02  1.864E+00
   1    3    7     3     3    1.4684E+00  1.9718E-01   1.2712E+00  0.000E+00  0.000E+00  0.000E+00  1.06987E+03  1.555E+00  8.218E+00  5.547E-02  1.777E+00
   1    4    8     3     4    1.2712E+00  2.2567E-01   1.0456E+00  0.000E+00  0.000E+00  0.000E+00  1.06682E+03  1.364E+00  7.455E+00  6.709E-02  1.682E+00
   1    5    8     3     5    1.0456E+00  1.5790E-01   8.8768E-01  0.000E+00  0.000E+00  0.000E+00  1.06362E+03  1.164E+00  6.655E+00  4.991E-02  1.582E+00
   1    6    8     3     6    8.8768E-01  5.5980E-02   8.3170E-01  0.000E+00  0.000E+00  0.000E+00  1.06158E+03  1.036E+00  6.145E+00  1.844E-02  1.518E+00
   1    5   10     4     1    1.0000E+01  9.0919E-02   9.9091E+00  0.000E+00  0.000E+00  0.000E+00  1.07836E+03  6.368E-01  1.000E+01  2.500E-02  1.212E+00
   1    5    9     4     2    9.9091E+00  1.8158E-01   9.7275E+00  0.000E+00  0.000E+00  0.000E+00  1.07154E+03  6.315E-01  1.000E+01  5.000E-02  1.211E+00
   1    6    8     4     3    9.7275E+00  1.2689E-01   9.6006E+00  0.000E+00  0.000E+00  0.000E+00  1.06381E+03  6.256E-01  1.000E+01  3.500E-02  1.209E+00
   1    6    8     5     1    1.0432E+01  2.2686E-01   1.0205E+01  0.000E+00  0.000E+00  0.000E+00  1.05868E+03  6.790E-01  1.542E+01  6.166E-02  1.226E+00
   1    7    7     5     2    1.0205E+01  2.7894E-01   9.9265E+00  0.000E+00  0.000E+00  0.000E+00  1.05417E+03  6.732E-01  1.519E+01  7.594E-02  1.224E+00
   1    8    7     5     3    9.9265E+00  1.9221E-01   9.7343E+00  0.000E+00  0.000E+00  0.000E+00  1.04992E+03  6.676E-01  1.497E+01  5.241E-02  1.223E+00
   1    8    6     5     4    9.7343E+00  1.3577E-01   9.5985E+00  0.000E+00  0.000E+00  0.000E+00  1.04691E+03  6.637E-01  1.482E+01  3.706E-02  1.221E+00
   1    9    6     6     1    5.1409E+01  2.9272E-01   5.1116E+01  0.000E+00  0.000E+00  0.000E+00  1.04461E+03  1.879E+00  1.200E+01  6.000E-02  1.626E+00
   1   10    7     6     2    5.1116E+01  2.9233E-01   5.0824E+01  0.000E+00  0.000E+00  0.000E+00  1.04005E+03  1.872E+00  1.200E+01  6.000E-02  1.624E+00
   1   11    7     6     3    5.0824E+01  2.9195E-01   5.0532E+01  0.000E+00  0.000E+00  0.000E+00  1.03550E+03  1.866E+00  1.200E+01  6.000E-02  1.622E+00
   1   12    7     6     4    5.0532E+01  2.9156E-01   5.0240E+01  0.000E+00  0.000E+00  0.000E+00  1.03095E+03  1.859E+00  1.200E+01  6.000E-02  1.620E+00
   1   13    7     6     5    5.0240E+01  1.4805E-02   5.0226E+01  0.000E+00  0.000E+00  0.000E+00  1.02777E+03  1.856E+00  1.200E+01  2.400E-02  2.056E-01
   1   14    9     7     1    1.5000E+02  1.3348E+00   1.4867E+02  0.000E+00  0.000E+00  0.000E+00  1.03987E+03  2.288E+00  5.529E+01  5.593E-01  7.955E-01
   1   13    8     7     2    1.4867E+02  1.8160E+00   1.4685E+02  0.000E+00  0.000E+00  0.000E+00  1.03478E+03  2.279E+00  5.526E+01  6.148E-01  9.847E-01
   1   13    7     7     3    1.4685E+02  1.4196E+00   1.4543E+02  0.000E+00  0.000E+00  0.000E+00  1.02969E+03  2.271E+00  5.522E+01  5.585E-01  8.473E-01
   1   13    6     8     1    1.9566E+02  9.7146E-01   1.9468E+02  0.000E+00  0.000E+00  0.000E+00  1.02498E+03  3.109E+00  4.508E+01  4.594E-01  7.049E-01
   1   13    5     8     2    1.9468E+02  2.2927E-01   1.9445E+02  0.000E+00  0.000E+00  0.000E+00  1.01873E+03  3.105E+00  4.503E+01  4.589E-01  1.665E-01
   1   13    4     8     3    1.9445E+02 -2.3031E+00   1.9676E+02  0.000E+00  0.000E+00  0.000E+00  1.01249E+03  3.112E+00  4.512E+01  4.598E+00 -1.670E-01
   1   13    3     8     4    1.9676E+02 -3.4972E+00   2.0025E+02  0.000E+00  0.000E+00  0.000E+00  1.00625E+03  3.129E+00  4.537E+01  4.623E+00 -2.521E-01
   1   13    2     8     5    2.0025E+02 -2.6714E+00   2.0293E+02  0.000E+00  0.000E+00  0.000E+00  1.00002E+03  3.147E+00  4.563E+01  4.650E+00 -1.915E-01
   1   13    1     8     6    2.0293E+02 -1.7627E+00   2.0469E+02  0.000E+00  0.000E+00  0.000E+00  9.95035E+02  3.160E+00  4.582E+01  2.802E+00 -2.097E-01
   1    8    6     9     1    2.7374E+01  0.0000E+00   2.7374E+01  0.000E+00  0.000E+00  0.000E+00  1.08290E+03  4.146E+00  4.000E+00  0.000E+00  2.382E+00
   1    8    5     9     2    2.7374E+01  0.0000E+00   2.7374E+01  0.000E+00  0.000E+00  0.000E+00  1.08240E+03  4.146E+00  4.000E+00  0.000E+00  2.382E+00



 UBDSV3 SAVING "           GW ET" ON UNIT  61 AT TIME STEP  1, STRESS PERIOD   8
 UBDSV3 SAVING "    UZF RECHARGE" ON UNIT  61 AT TIME STEP  1, STRESS PERIOD   8
 UBDSV3 SAVING " SURFACE LEAKAGE" ON UNIT  61 AT TIME STEP  1, STRESS PERIOD   8
 UBDSV3 SAVING "       HORT+DUNN" ON UNIT  61 AT TIME STEP  1, STRESS PERIOD   8
 UBDSV3 SAVING "  STORAGE CHANGE" ON UNIT  61 AT TIME STEP  1, STRESS PERIOD   8


UNSATURATED ZONE PACKAGE VOLUMETRIC BUDGET FOR  TIME STEP     1 STRESS PERIOD    8
  ------------------------------------------------------------------------------



     CUMULATIVE VOLUMES      L**3       RATES FOR THIS TIME STEP      L**3/T
     ------------------                 ------------------------

           IN:                                      IN:
           ---                                      ---
        INFILTRATION =    98890398.0987          INFILTRATION =          88.2225

          OUT:                                     OUT:
          ----                                     ----
              UZF ET =    27610748.1576                UZF ET =          12.8216
        UZF RECHARGE =     6919120.1823          UZF RECHARGE =           0.2553

            IN - OUT =    64360529.7588              IN - OUT =          75.1455

          STORAGE:                                 STORAGE:
          --------                                 --------
      STORAGE CHANGE =    64380343.7178        STORAGE CHANGE =          75.1391

 PERCENT DISCREPANCY IS DIFFERENCE BETWEEN IN-OUT MINUS CHANGE IN STORAGE
 DIVIDED BY THE AVERAGE OF IN AND OUT TIMES 100

 PERCENT DISCREPANCY =          -0.01     PERCENT DISCREPANCY =           0.01






 

            AWU WELLS     PERIOD    8   STEP   1
 AWU WELL      1   LAYER   1   ROW     6   COL     4   RATE    -10.0000    
 AWU WELL      2   LAYER   1   ROW     6   COL     5   RATE    -10.0000    
 AWU WELL      3   LAYER   1   ROW     7   COL     4   RATE    -10.0000    
 AWU WELL      4   LAYER   1   ROW     7   COL     5   RATE    -10.0000    
 AWU WELL      5   LAYER   1   ROW     8   COL     4   RATE    -10.0000    
 AWU WELL      6   LAYER   1   ROW     8   COL     5   RATE    -10.0000    
 
 

   DIVERSION SEGMENTS     PERIOD    8   STEP   1
 SEGMENT      9   RATE     27.3744    
 
 

        SW IRRIGATION     PERIOD    8   STEP   1
 SEGMENT      9   ROW     6   COL     4   RATE     4.56250    
 SEGMENT      9   ROW     6   COL     5   RATE     4.56250    
 SEGMENT      9   ROW     7   COL     4   RATE     4.56250    
 SEGMENT      9   ROW     7   COL     5   RATE     4.56250    
 SEGMENT      9   ROW     8   COL     4   RATE     4.56250    
 SEGMENT      9   ROW     8   COL     5   RATE     4.56250    
 
 

        GW IRRIGATION     PERIOD    8   STEP   1
 AWU WELL      1   ROW     6   COL     4   RATE     10.0000    
 AWU WELL      2   ROW     6   COL     5   RATE     10.0000    
 AWU WELL      3   ROW     7   COL     4   RATE     10.0000    
 AWU WELL      4   ROW     7   COL     5   RATE     10.0000    
 AWU WELL      5   ROW     8   COL     4   RATE     10.0000    
 AWU WELL      6   ROW     8   COL     5   RATE     10.0000    
 
1
  VOLUMETRIC BUDGET FOR ENTIRE MODEL AT END OF TIME STEP    1, STRESS PERIOD   8
  ------------------------------------------------------------------------------

     CUMULATIVE VOLUMES      L**3       RATES FOR THIS TIME STEP      L**3/T
     ------------------                 ------------------------

           IN:                                      IN:
           ---                                      ---
               AWU WELLS =    50669264.0000                 AWU WELLS =          60.0000
      DIVERSION SEGMENTS =    34709848.0000        DIVERSION SEGMENTS =          27.3744
           GW IRRIGATION =           0.0000             GW IRRIGATION =           0.0000
           SW IRRIGATION =           0.0000             SW IRRIGATION =           0.0000
        SYSTEM LOSSES GW =           0.0000          SYSTEM LOSSES GW =           0.0000
        SYSTEM LOSSES SW =           0.0000          SYSTEM LOSSES SW =           0.0000

                TOTAL IN =    85379112.0000                  TOTAL IN =          87.3744

          OUT:                                     OUT:
          ----                                     ----
               AWU WELLS =           0.0000                 AWU WELLS =           0.0000
      DIVERSION SEGMENTS =           0.0000        DIVERSION SEGMENTS =           0.0000
           GW IRRIGATION =    50669264.0000             GW IRRIGATION =          60.0000
           SW IRRIGATION =    34710540.0000             SW IRRIGATION =          27.3750
        SYSTEM LOSSES GW =           0.0000          SYSTEM LOSSES GW =           0.0000
        SYSTEM LOSSES SW =           0.0000          SYSTEM LOSSES SW =           0.0000

               TOTAL OUT =    85379808.0000                 TOTAL OUT =          87.3750

                IN - OUT =        -696.0000                  IN - OUT =      -5.4932E-04

     PERCENT DISCREPANCY =          -0.00         PERCENT DISCREPANCY =          -0.00



1
  VOLUMETRIC BUDGET FOR ENTIRE MODEL AT END OF TIME STEP    1, STRESS PERIOD   8
  ------------------------------------------------------------------------------

     CUMULATIVE VOLUMES      L**3       RATES FOR THIS TIME STEP      L**3/T
     ------------------                 ------------------------

           IN:                                      IN:
           ---                                      ---
             STORAGE     =    78106184.0000               STORAGE     =          66.6792
       CONSTANT HEAD     =           0.0000         CONSTANT HEAD     =           0.0000
     HEAD DEP BOUNDS     =     4555386.0000       HEAD DEP BOUNDS     =           0.2857
      STREAM LEAKAGE     =   204604272.0000        STREAM LEAKAGE     =          13.1711
        UZF RECHARGE     =     6919116.5000          UZF RECHARGE     =           0.2553
               GW ET     =           0.0000                 GW ET     =           0.0000
     SURFACE LEAKAGE     =           0.0000       SURFACE LEAKAGE     =           0.0000
           AWU WELLS     =           0.0000             AWU WELLS     =           0.0000

                TOTAL IN =   294184960.0000                  TOTAL IN =          80.3913

          OUT:                                     OUT:
          ----                                     ----
             STORAGE     =    67413712.0000               STORAGE     =           1.4861
       CONSTANT HEAD     =           0.0000         CONSTANT HEAD     =           0.0000
     HEAD DEP BOUNDS     =     4668766.5000       HEAD DEP BOUNDS     =           0.2912
      STREAM LEAKAGE     =   158004688.0000        STREAM LEAKAGE     =          10.2344
        UZF RECHARGE     =           0.0000          UZF RECHARGE     =           0.0000
               GW ET     =    13436423.0000                 GW ET     =           8.3797
     SURFACE LEAKAGE     =           0.0000       SURFACE LEAKAGE     =           0.0000
           AWU WELLS     =    50669264.0000             AWU WELLS     =          60.0000

               TOTAL OUT =   294192832.0000                 TOTAL OUT =          80.3915

                IN - OUT =       -7872.0000                  IN - OUT =      -2.0599E-04

     PERCENT DISCREPANCY =          -0.00         PERCENT DISCREPANCY =          -0.00






         TIME SUMMARY AT END OF TIME STEP    1 IN STRESS PERIOD    8
                    SECONDS     MINUTES      HOURS       DAYS        YEARS
                    -----------------------------------------------------------
   TIME STEP LENGTH  87600.      1460.0      24.333      1.0139     2.77588E-03
 STRESS PERIOD TIME  87600.      1460.0      24.333      1.0139     2.77588E-03
         TOTAL TIME 1.59420E+07 2.65700E+05  4428.3      184.51     0.50517    
1
 
 SOLVING FOR HEAD 
                                                   Max.-Head-Change                         Max.-Flux-Residual
  Residual-Control   Outer-Iter.   Inner-Iter.     Column Row Layer    Maximum-Head-Change  Column Row Layer    Maximum-Flux-Residual          L2-NORM 
          0                 1           2             1   13     1      -0.1950869446E-01       1   13    1        -0.1077629972E+01      0.3104683269E+01
          0                 2           2             5   13     1       0.1888750579E-02       5   13    1         0.1050426627E+00      0.3043675207E+00
          0                 3           2             5   13     1      -0.1285374426E-03       5   13    1        -0.7349802180E-02      0.2106333895E-01
          0                 4           1             5   13     1       0.5110324335E-05       5   13    1         0.3004480413E-03      0.8565200382E-03

    ------------------------------------------------
       NWT REQUIRED            4 OUTER ITERATIONS 
       AND A TOTAL OF          7 INNER ITERATIONS.
    ------------------------------------------------

 NO OUTPUT CONTROL FOR STRESS PERIOD    8   TIME STEP    2
 
 SOLVING FOR HEAD 
                                                   Max.-Head-Change                         Max.-Flux-Residual
  Residual-Control   Outer-Iter.   Inner-Iter.     Column Row Layer    Maximum-Head-Change  Column Row Layer    Maximum-Flux-Residual          L2-NORM 
          0                 1           2             5   13     1      -0.1869823390E-01       1   13    1        -0.1015431411E+01      0.2949844551E+01
          0                 2           2             5   13     1       0.1817951008E-02       5   13    1         0.1011252125E+00      0.2889966884E+00
          0                 3           2             5   13     1      -0.1237191013E-03       5   13    1        -0.7075633451E-02      0.2001331282E-01
          0                 4           1             5   13     1       0.4915333985E-05       5   13    1         0.2890481514E-03      0.8145915325E-03

    ------------------------------------------------
       NWT REQUIRED            4 OUTER ITERATIONS 
       AND A TOTAL OF          7 INNER ITERATIONS.
    ------------------------------------------------

 NO OUTPUT CONTROL FOR STRESS PERIOD    8   TIME STEP    3
 
 SOLVING FOR HEAD 
                                                   Max.-Head-Change                         Max.-Flux-Residual
  Residual-Control   Outer-Iter.   Inner-Iter.     Column Row Layer    Maximum-Head-Change  Column Row Layer    Maximum-Flux-Residual          L2-NORM 
          0                 1           2             5   13     1      -0.1797199835E-01       5   13    1        -0.9724719479E+00      0.2806469467E+01
          0                 2           2             5   13     1       0.1747378737E-02       5   13    1         0.9721530843E-01      0.2747608636E+00
          0                 3           2             5   13     1      -0.1189180519E-03       5   13    1        -0.6802097585E-02      0.1904281679E-01
          0                 4           1             5   13     1       0.4727523452E-05       5   13    1         0.2780313810E-03      0.7777750466E-03

    ------------------------------------------------
       NWT REQUIRED            4 OUTER ITERATIONS 
       AND A TOTAL OF          7 INNER ITERATIONS.
    ------------------------------------------------

 NO OUTPUT CONTROL FOR STRESS PERIOD    8   TIME STEP    4
 
 SOLVING FOR HEAD 
                                                   Max.-Head-Change                         Max.-Flux-Residual
  Residual-Control   Outer-Iter.   Inner-Iter.     Column Row Layer    Maximum-Head-Change  Column Row Layer    Maximum-Flux-Residual          L2-NORM 
          0                 1           2             5   13     1      -0.1726386915E-01       5   13    1        -0.9342964316E+00      0.2674335759E+01
          0                 2           2             5   13     1       0.1678526113E-02       5   13    1         0.9339851237E-01      0.2616205903E+00
          0                 3           2             5   13     1      -0.1142283686E-03       5   13    1        -0.6534797241E-02      0.1814450532E-01
          0                 4           1             5   13     1       0.4539222245E-05       5   13    1         0.2669969504E-03      0.7426046291E-03

    ------------------------------------------------
       NWT REQUIRED            4 OUTER ITERATIONS 
       AND A TOTAL OF          7 INNER ITERATIONS.
    ------------------------------------------------

 OUTPUT CONTROL FOR STRESS PERIOD    8   TIME STEP    5
    PRINT BUDGET
    SAVE BUDGET
 UBDSV1 SAVING "         STORAGE" ON UNIT 102 AT TIME STEP  5, STRESS PERIOD   8
 UBDSV2 SAVING "   CONSTANT HEAD" ON UNIT 102 AT TIME STEP  5, STRESS PERIOD   8
 UBDSV1 SAVING "FLOW RIGHT FACE " ON UNIT 102 AT TIME STEP  5, STRESS PERIOD   8
 UBDSV1 SAVING "FLOW FRONT FACE " ON UNIT 102 AT TIME STEP  5, STRESS PERIOD   8

  HEAD DEP BOUNDS   PERIOD    8   STEP     5
 BOUNDARY      1   LAYER   1   ROW    13   COL     1   RATE   -0.288762    
 BOUNDARY      2   LAYER   1   ROW    14   COL     9   RATE    0.285687    



 STREAM LISTING     PERIOD      8   STEP        5

 LAYER ROW COL. STREAM  RCH.  FLOW INTO     FLOW TO   FLOW OUT OF   OVRLND.     DIRECT     STREAM       STREAM     STREAM     STREAM   STREAMBED  STREAMBED
                SEG.NO.  NO.  STRM. RCH.    AQUIFER    STRM. RCH.    RUNOFF     PRECIP       ET          HEAD       DEPTH      WIDTH   CONDCTNC.   GRADIENT

   1    1    1     1     1    7.5000E+01  4.2232E-01   7.4578E+01  0.000E+00  0.000E+00  0.000E+00  1.09475E+03  1.698E+00  1.998E+01  8.990E-02  1.566E+00
   1    2    2     1     2    7.4578E+01  6.5422E-01   7.3923E+01  0.000E+00  0.000E+00  0.000E+00  1.08975E+03  1.692E+00  1.992E+01  1.394E-01  1.564E+00
   1    3    3     1     3    7.3923E+01  5.5813E-01   7.3365E+01  0.000E+00  0.000E+00  0.000E+00  1.08410E+03  1.685E+00  1.985E+01  1.191E-01  1.562E+00
   1    3    4     1     4    7.3365E+01  5.1411E-01   7.2851E+01  0.000E+00  0.000E+00  0.000E+00  1.07909E+03  1.679E+00  1.980E+01  1.099E-01  1.560E+00
   1    4    5     2     1    7.0851E+01  4.0967E-01   7.0442E+01  0.000E+00  0.000E+00  0.000E+00  1.07419E+03  2.252E+00  1.200E+01  7.800E-02  1.751E+00
   1    5    6     2     2    7.0442E+01  3.1471E-01   7.0127E+01  0.000E+00  0.000E+00  0.000E+00  1.06875E+03  2.245E+00  1.200E+01  6.000E-02  1.748E+00
   1    6    6     2     3    7.0127E+01  3.1435E-01   6.9812E+01  0.000E+00  0.000E+00  0.000E+00  1.06403E+03  2.239E+00  1.200E+01  6.000E-02  1.746E+00
   1    7    6     2     4    6.9812E+01  3.1399E-01   6.9498E+01  0.000E+00  0.000E+00  0.000E+00  1.05931E+03  2.233E+00  1.200E+01  6.000E-02  1.744E+00
   1    8    6     2     5    6.9498E+01  3.1363E-01   6.9185E+01  0.000E+00  0.000E+00  0.000E+00  1.05459E+03  2.227E+00  1.200E+01  6.000E-02  1.742E+00
   1    3    5     3     1    2.0000E+00  2.8252E-01   1.7175E+00  0.000E+00  0.000E+00  0.000E+00  1.07555E+03  1.909E+00  9.636E+00  7.227E-02  1.955E+00
   1    3    6     3     2    1.7175E+00  2.4905E-01   1.4684E+00  0.000E+00  0.000E+00  0.000E+00  1.07264E+03  1.727E+00  8.909E+00  6.682E-02  1.864E+00
   1    3    7     3     3    1.4684E+00  1.9718E-01   1.2712E+00  0.000E+00  0.000E+00  0.000E+00  1.06987E+03  1.555E+00  8.218E+00  5.547E-02  1.777E+00
   1    4    8     3     4    1.2712E+00  2.2567E-01   1.0456E+00  0.000E+00  0.000E+00  0.000E+00  1.06682E+03  1.364E+00  7.455E+00  6.709E-02  1.682E+00
   1    5    8     3     5    1.0456E+00  1.5790E-01   8.8768E-01  0.000E+00  0.000E+00  0.000E+00  1.06362E+03  1.164E+00  6.655E+00  4.991E-02  1.582E+00
   1    6    8     3     6    8.8768E-01  5.5980E-02   8.3170E-01  0.000E+00  0.000E+00  0.000E+00  1.06158E+03  1.036E+00  6.145E+00  1.844E-02  1.518E+00
   1    5   10     4     1    1.0000E+01  9.0919E-02   9.9091E+00  0.000E+00  0.000E+00  0.000E+00  1.07836E+03  6.368E-01  1.000E+01  2.500E-02  1.212E+00
   1    5    9     4     2    9.9091E+00  1.8158E-01   9.7275E+00  0.000E+00  0.000E+00  0.000E+00  1.07154E+03  6.315E-01  1.000E+01  5.000E-02  1.211E+00
   1    6    8     4     3    9.7275E+00  1.2689E-01   9.6006E+00  0.000E+00  0.000E+00  0.000E+00  1.06381E+03  6.256E-01  1.000E+01  3.500E-02  1.209E+00
   1    6    8     5     1    1.0432E+01  2.2686E-01   1.0205E+01  0.000E+00  0.000E+00  0.000E+00  1.05868E+03  6.790E-01  1.542E+01  6.166E-02  1.226E+00
   1    7    7     5     2    1.0205E+01  2.7894E-01   9.9265E+00  0.000E+00  0.000E+00  0.000E+00  1.05417E+03  6.732E-01  1.519E+01  7.594E-02  1.224E+00
   1    8    7     5     3    9.9265E+00  1.9221E-01   9.7343E+00  0.000E+00  0.000E+00  0.000E+00  1.04992E+03  6.676E-01  1.497E+01  5.241E-02  1.223E+00
   1    8    6     5     4    9.7343E+00  1.3577E-01   9.5985E+00  0.000E+00  0.000E+00  0.000E+00  1.04691E+03  6.637E-01  1.482E+01  3.706E-02  1.221E+00
   1    9    6     6     1    7.8783E+01  3.2569E-01   7.8458E+01  0.000E+00  0.000E+00  0.000E+00  1.04516E+03  2.428E+00  1.200E+01  6.000E-02  1.809E+00
   1   10    7     6     2    7.8458E+01  3.2533E-01   7.8132E+01  0.000E+00  0.000E+00  0.000E+00  1.04060E+03  2.422E+00  1.200E+01  6.000E-02  1.807E+00
   1   11    7     6     3    7.8132E+01  3.2497E-01   7.7807E+01  0.000E+00  0.000E+00  0.000E+00  1.03605E+03  2.416E+00  1.200E+01  6.000E-02  1.805E+00
   1   12    7     6     4    7.7807E+01  3.2461E-01   7.7483E+01  0.000E+00  0.000E+00  0.000E+00  1.03150E+03  2.410E+00  1.200E+01  6.000E-02  1.803E+00
   1   13    7     6     5    7.7483E+01  2.8309E-02   7.7454E+01  0.000E+00  0.000E+00  0.000E+00  1.02832E+03  2.407E+00  1.200E+01  2.400E-02  3.932E-01
   1   14    9     7     1    1.5000E+02  1.3348E+00   1.4867E+02  0.000E+00  0.000E+00  0.000E+00  1.03987E+03  2.288E+00  5.529E+01  5.593E-01  7.955E-01
   1   13    8     7     2    1.4867E+02  1.8161E+00   1.4685E+02  0.000E+00  0.000E+00  0.000E+00  1.03478E+03  2.279E+00  5.526E+01  6.148E-01  9.847E-01
   1   13    7     7     3    1.4685E+02  1.4261E+00   1.4542E+02  0.000E+00  0.000E+00  0.000E+00  1.02969E+03  2.271E+00  5.522E+01  5.585E-01  8.512E-01
   1   13    6     8     1    2.2288E+02  1.1082E+00   2.2177E+02  0.000E+00  0.000E+00  0.000E+00  1.02514E+03  3.265E+00  4.734E+01  4.824E-01  7.658E-01
   1   13    5     8     2    2.2177E+02  3.4765E-01   2.2142E+02  0.000E+00  0.000E+00  0.000E+00  1.01889E+03  3.261E+00  4.728E+01  4.818E-01  2.405E-01
   1   13    4     8     3    2.2142E+02 -1.4394E+00   2.2286E+02  0.000E+00  0.000E+00  0.000E+00  1.01264E+03  3.264E+00  4.732E+01  4.822E+00 -9.949E-02
   1   13    3     8     4    2.2286E+02 -2.6990E+00   2.2556E+02  0.000E+00  0.000E+00  0.000E+00  1.00640E+03  3.275E+00  4.749E+01  4.839E+00 -1.859E-01
   1   13    2     8     5    2.2556E+02 -1.9800E+00   2.2754E+02  0.000E+00  0.000E+00  0.000E+00  1.00016E+03  3.288E+00  4.767E+01  4.858E+00 -1.359E-01
   1   13    1     8     6    2.2754E+02 -1.2490E+00   2.2879E+02  0.000E+00  0.000E+00  0.000E+00  9.95172E+02  3.297E+00  4.780E+01  2.923E+00 -1.425E-01
   1    8    6     9     1    0.0000E+00  0.0000E+00   0.0000E+00  0.000E+00  0.000E+00  0.000E+00  1.07875E+03  0.000E+00  4.000E+00  0.000E+00  1.000E+00
   1    8    5     9     2    0.0000E+00  0.0000E+00   0.0000E+00  0.000E+00  0.000E+00  0.000E+00  1.07825E+03  0.000E+00  4.000E+00  0.000E+00  1.000E+00



 UBDSV3 SAVING "           GW ET" ON UNIT  61 AT TIME STEP  5, STRESS PERIOD   8
 UBDSV3 SAVING "    UZF RECHARGE" ON UNIT  61 AT TIME STEP  5, STRESS PERIOD   8
 UBDSV3 SAVING " SURFACE LEAKAGE" ON UNIT  61 AT TIME STEP  5, STRESS PERIOD   8
 UBDSV3 SAVING "       HORT+DUNN" ON UNIT  61 AT TIME STEP  5, STRESS PERIOD   8
 UBDSV3 SAVING "  STORAGE CHANGE" ON UNIT  61 AT TIME STEP  5, STRESS PERIOD   8


UNSATURATED ZONE PACKAGE VOLUMETRIC BUDGET FOR  TIME STEP     5 STRESS PERIOD    8
  ------------------------------------------------------------------------------



     CUMULATIVE VOLUMES      L**3       RATES FOR THIS TIME STEP      L**3/T
     ------------------                 ------------------------

           IN:                                      IN:
           ---                                      ---
        INFILTRATION =    99187362.0987          INFILTRATION =           0.8475

          OUT:                                     OUT:
          ----                                     ----
              UZF ET =    32177722.2748                UZF ET =          12.9629
        UZF RECHARGE =     7007052.3284          UZF RECHARGE =           0.2482

            IN - OUT =    60002587.4955              IN - OUT =         -12.3636

          STORAGE:                                 STORAGE:
          --------                                 --------
      STORAGE CHANGE =    60034625.0445        STORAGE CHANGE =         -12.3636

 PERCENT DISCREPANCY IS DIFFERENCE BETWEEN IN-OUT MINUS CHANGE IN STORAGE
 DIVIDED BY THE AVERAGE OF IN AND OUT TIMES 100

 PERCENT DISCREPANCY =          -0.01     PERCENT DISCREPANCY =           0.00






 

            AWU WELLS     PERIOD    8   STEP   5
 AWU WELL      1   LAYER   1   ROW     6   COL     4   RATE     0.00000    
 AWU WELL      2   LAYER   1   ROW     6   COL     5   RATE     0.00000    
 AWU WELL      3   LAYER   1   ROW     7   COL     4   RATE     0.00000    
 AWU WELL      4   LAYER   1   ROW     7   COL     5   RATE     0.00000    
 AWU WELL      5   LAYER   1   ROW     8   COL     4   RATE     0.00000    
 AWU WELL      6   LAYER   1   ROW     8   COL     5   RATE     0.00000    
 
 

   DIVERSION SEGMENTS     PERIOD    8   STEP   5
 SEGMENT      9   RATE     0.00000    
 
 

        SW IRRIGATION     PERIOD    8   STEP   5
 SEGMENT      9   ROW     6   COL     4   RATE     0.00000    
 SEGMENT      9   ROW     6   COL     5   RATE     0.00000    
 SEGMENT      9   ROW     7   COL     4   RATE     0.00000    
 SEGMENT      9   ROW     7   COL     5   RATE     0.00000    
 SEGMENT      9   ROW     8   COL     4   RATE     0.00000    
 SEGMENT      9   ROW     8   COL     5   RATE     0.00000    
 
 

        GW IRRIGATION     PERIOD    8   STEP   5
 AWU WELL      1   ROW     6   COL     4   RATE     0.00000    
 AWU WELL      2   ROW     6   COL     5   RATE     0.00000    
 AWU WELL      3   ROW     7   COL     4   RATE     0.00000    
 AWU WELL      4   ROW     7   COL     5   RATE     0.00000    
 AWU WELL      5   ROW     8   COL     4   RATE     0.00000    
 AWU WELL      6   ROW     8   COL     5   RATE     0.00000    
 
1
  VOLUMETRIC BUDGET FOR ENTIRE MODEL AT END OF TIME STEP    5, STRESS PERIOD   8
  ------------------------------------------------------------------------------

     CUMULATIVE VOLUMES      L**3       RATES FOR THIS TIME STEP      L**3/T
     ------------------                 ------------------------

           IN:                                      IN:
           ---                                      ---
               AWU WELLS =    50669264.0000                 AWU WELLS =           0.0000
      DIVERSION SEGMENTS =    34709848.0000        DIVERSION SEGMENTS =           0.0000
           GW IRRIGATION =           0.0000             GW IRRIGATION =           0.0000
           SW IRRIGATION =           0.0000             SW IRRIGATION =           0.0000
        SYSTEM LOSSES GW =           0.0000          SYSTEM LOSSES GW =           0.0000
        SYSTEM LOSSES SW =           0.0000          SYSTEM LOSSES SW =           0.0000

                TOTAL IN =    85379112.0000                  TOTAL IN =           0.0000

          OUT:                                     OUT:
          ----                                     ----
               AWU WELLS =           0.0000                 AWU WELLS =           0.0000
      DIVERSION SEGMENTS =           0.0000        DIVERSION SEGMENTS =           0.0000
           GW IRRIGATION =    50669264.0000             GW IRRIGATION =           0.0000
           SW IRRIGATION =    34710540.0000             SW IRRIGATION =           0.0000
        SYSTEM LOSSES GW =           0.0000          SYSTEM LOSSES GW =           0.0000
        SYSTEM LOSSES SW =           0.0000          SYSTEM LOSSES SW =           0.0000

               TOTAL OUT =    85379808.0000                 TOTAL OUT =           0.0000

                IN - OUT =        -696.0000                  IN - OUT =           0.0000

     PERCENT DISCREPANCY =          -0.00         PERCENT DISCREPANCY =           0.00



1
  VOLUMETRIC BUDGET FOR ENTIRE MODEL AT END OF TIME STEP    5, STRESS PERIOD   8
  ------------------------------------------------------------------------------

     CUMULATIVE VOLUMES      L**3       RATES FOR THIS TIME STEP      L**3/T
     ------------------                 ------------------------

           IN:                                      IN:
           ---                                      ---
             STORAGE     =    80922744.0000               STORAGE     =           7.5033
       CONSTANT HEAD     =           0.0000         CONSTANT HEAD     =           0.0000
     HEAD DEP BOUNDS     =     4655491.5000       HEAD DEP BOUNDS     =           0.2857
      STREAM LEAKAGE     =   209355488.0000        STREAM LEAKAGE     =          13.5783
        UZF RECHARGE     =     7007048.5000          UZF RECHARGE     =           0.2482
               GW ET     =           0.0000                 GW ET     =           0.0000
     SURFACE LEAKAGE     =           0.0000       SURFACE LEAKAGE     =           0.0000
           AWU WELLS     =           0.0000             AWU WELLS     =           0.0000

                TOTAL IN =   301940768.0000                  TOTAL IN =          21.6155

          OUT:                                     OUT:
          ----                                     ----
             STORAGE     =    69478232.0000               STORAGE     =           5.6859
       CONSTANT HEAD     =           0.0000         CONSTANT HEAD     =           0.0000
     HEAD DEP BOUNDS     =     4770258.0000       HEAD DEP BOUNDS     =           0.2888
      STREAM LEAKAGE     =   160681456.0000        STREAM LEAKAGE     =           7.3675
        UZF RECHARGE     =           0.0000          UZF RECHARGE     =           0.0000
               GW ET     =    16349463.0000                 GW ET     =           8.2734
     SURFACE LEAKAGE     =           0.0000       SURFACE LEAKAGE     =           0.0000
           AWU WELLS     =    50669264.0000             AWU WELLS     =           0.0000

               TOTAL OUT =   301948672.0000                 TOTAL OUT =          21.6155

                IN - OUT =       -7904.0000                  IN - OUT =       2.6703E-05

     PERCENT DISCREPANCY =          -0.00         PERCENT DISCREPANCY =           0.00






         TIME SUMMARY AT END OF TIME STEP    5 IN STRESS PERIOD    8
                    SECONDS     MINUTES      HOURS       DAYS        YEARS
                    -----------------------------------------------------------
   TIME STEP LENGTH  87600.      1460.0      24.333      1.0139     2.77588E-03
 STRESS PERIOD TIME 4.38000E+05  7300.0      121.67      5.0694     1.38794E-02
         TOTAL TIME 1.62924E+07 2.71540E+05  4525.7      188.57     0.51627    
1
 
 SOLVING FOR HEAD 
                                                   Max.-Head-Change                         Max.-Flux-Residual
  Residual-Control   Outer-Iter.   Inner-Iter.     Column Row Layer    Maximum-Head-Change  Column Row Layer    Maximum-Flux-Residual          L2-NORM 
          0                 1           2             5   13     1      -0.1658177354E-01       5   13    1        -0.8974867863E+00      0.2552815171E+01
          0                 2           2             5   13     1       0.1612207684E-02       5   13    1         0.8971834420E-01      0.2495173888E+00
          0                 3           2             5   13     1      -0.1097175098E-03       5   13    1        -0.6277419223E-02      0.1731728973E-01
          0                 4           1             5   13     1       0.4359973867E-05       5   13    1         0.2564830643E-03      0.7098752007E-03

    ------------------------------------------------
       NWT REQUIRED            4 OUTER ITERATIONS 
       AND A TOTAL OF          7 INNER ITERATIONS.
    ------------------------------------------------

 NO OUTPUT CONTROL FOR STRESS PERIOD    8   TIME STEP    6
 
 SOLVING FOR HEAD 
                                                   Max.-Head-Change                         Max.-Flux-Residual
  Residual-Control   Outer-Iter.   Inner-Iter.     Column Row Layer    Maximum-Head-Change  Column Row Layer    Maximum-Flux-Residual          L2-NORM 
          0                 1           2             5   13     1      -0.1592531087E-01       5   13    1        -0.8620280962E+00      0.2440879875E+01
          0                 2           2             5   13     1       0.1548380265E-02       5   13    1         0.8617314110E-01      0.2383540986E+00
          0                 3           2             5   13     1      -0.1053731173E-03       5   13    1        -0.6029296126E-02      0.1655465348E-01
          0                 4           1             5   13     1       0.4188454926E-05       5   13    1         0.2463905107E-03      0.6805146438E-03

    ------------------------------------------------
       NWT REQUIRED            4 OUTER ITERATIONS 
       AND A TOTAL OF          7 INNER ITERATIONS.
    ------------------------------------------------

 NO OUTPUT CONTROL FOR STRESS PERIOD    8   TIME STEP    7
 
 SOLVING FOR HEAD 
                                                   Max.-Head-Change                         Max.-Flux-Residual
  Residual-Control   Outer-Iter.   Inner-Iter.     Column Row Layer    Maximum-Head-Change  Column Row Layer    Maximum-Flux-Residual          L2-NORM 
          0                 1           2             4    7     1      -0.1360833617E+00       4    7    1        -0.7116795994E+01      0.1719459271E+02
          0                 2           2             4    7     1       0.1323733542E-01       4    7    1         0.7116854145E+00      0.1717926540E+01
          0                 3           2             4    7     1      -0.9011385928E-03       4    7    1        -0.4980283111E-01      0.1201348488E+00
          0                 4           1             4    7     1       0.3612597883E-04       4    7    1         0.2052197007E-02      0.4947006780E-02

    ------------------------------------------------
       NWT REQUIRED            4 OUTER ITERATIONS 
       AND A TOTAL OF          7 INNER ITERATIONS.
    ------------------------------------------------

 NO OUTPUT CONTROL FOR STRESS PERIOD    8   TIME STEP    8
 
 SOLVING FOR HEAD 
                                                   Max.-Head-Change                         Max.-Flux-Residual
  Residual-Control   Outer-Iter.   Inner-Iter.     Column Row Layer    Maximum-Head-Change  Column Row Layer    Maximum-Flux-Residual          L2-NORM 
          0                 1           2             4   13     1      -0.2908381537E-01       4   13    1        -0.1666459607E+01      0.3907335135E+01
          0                 2           2             4   13     1       0.2420590412E-01       4   13    1         0.1445106777E+01      0.2532736857E+01
          0                 3           2             7   13     1      -0.4822029450E-02       7   13    1        -0.2769226549E+00      0.3186130940E+00
          0                 4           2             7   13     1       0.1916398765E-03       7   13    1         0.1132088848E-01      0.1276559340E-01
          0                 5           1             7   13     1      -0.2367798724E-05       7   13    1        -0.1433794553E-03      0.1572663309E-03

    ------------------------------------------------
       NWT REQUIRED            5 OUTER ITERATIONS 
       AND A TOTAL OF          9 INNER ITERATIONS.
    ------------------------------------------------

 NO OUTPUT CONTROL FOR STRESS PERIOD    8   TIME STEP    9
 
 SOLVING FOR HEAD 
                                                   Max.-Head-Change                         Max.-Flux-Residual
  Residual-Control   Outer-Iter.   Inner-Iter.     Column Row Layer    Maximum-Head-Change  Column Row Layer    Maximum-Flux-Residual          L2-NORM 
          0                 1           2             4   13     1      -0.2859089932E-01       4   13    1        -0.1638441837E+01      0.3811456455E+01
          0                 2           2             4   13     1       0.2420351295E-01       4   13    1         0.1444996178E+01      0.2530829111E+01
          0                 3           2             7   13     1      -0.4831426335E-02       7   13    1        -0.2774780238E+00      0.3189651092E+00
          0                 4           2             7   13     1       0.1920398664E-03       7   13    1         0.1134364245E-01      0.1277652762E-01
          0                 5           1             7   13     1      -0.2372190602E-05       7   13    1        -0.1436969642E-03      0.1563618569E-03

    ------------------------------------------------
       NWT REQUIRED            5 OUTER ITERATIONS 
       AND A TOTAL OF          9 INNER ITERATIONS.
    ------------------------------------------------

 OUTPUT CONTROL FOR STRESS PERIOD    8   TIME STEP   10
    PRINT BUDGET
    SAVE BUDGET
 UBDSV1 SAVING "         STORAGE" ON UNIT 102 AT TIME STEP 10, STRESS PERIOD   8
 UBDSV2 SAVING "   CONSTANT HEAD" ON UNIT 102 AT TIME STEP 10, STRESS PERIOD   8
 UBDSV1 SAVING "FLOW RIGHT FACE " ON UNIT 102 AT TIME STEP 10, STRESS PERIOD   8
 UBDSV1 SAVING "FLOW FRONT FACE " ON UNIT 102 AT TIME STEP 10, STRESS PERIOD   8

  HEAD DEP BOUNDS   PERIOD    8   STEP    10
 BOUNDARY      1   LAYER   1   ROW    13   COL     1   RATE   -0.286149    
 BOUNDARY      2   LAYER   1   ROW    14   COL     9   RATE    0.285681    



 STREAM LISTING     PERIOD      8   STEP       10

 LAYER ROW COL. STREAM  RCH.  FLOW INTO     FLOW TO   FLOW OUT OF   OVRLND.     DIRECT     STREAM       STREAM     STREAM     STREAM   STREAMBED  STREAMBED
                SEG.NO.  NO.  STRM. RCH.    AQUIFER    STRM. RCH.    RUNOFF     PRECIP       ET          HEAD       DEPTH      WIDTH   CONDCTNC.   GRADIENT

   1    1    1     1     1    7.5000E+01  4.2232E-01   7.4578E+01  0.000E+00  0.000E+00  0.000E+00  1.09475E+03  1.698E+00  1.998E+01  8.990E-02  1.566E+00
   1    2    2     1     2    7.4578E+01  6.5422E-01   7.3923E+01  0.000E+00  0.000E+00  0.000E+00  1.08975E+03  1.692E+00  1.992E+01  1.394E-01  1.564E+00
   1    3    3     1     3    7.3923E+01  5.5813E-01   7.3365E+01  0.000E+00  0.000E+00  0.000E+00  1.08410E+03  1.685E+00  1.985E+01  1.191E-01  1.562E+00
   1    3    4     1     4    7.3365E+01  5.1411E-01   7.2851E+01  0.000E+00  0.000E+00  0.000E+00  1.07909E+03  1.679E+00  1.980E+01  1.099E-01  1.560E+00
   1    4    5     2     1    7.0851E+01  4.0967E-01   7.0442E+01  0.000E+00  0.000E+00  0.000E+00  1.07419E+03  2.252E+00  1.200E+01  7.800E-02  1.751E+00
   1    5    6     2     2    7.0442E+01  3.1471E-01   7.0127E+01  0.000E+00  0.000E+00  0.000E+00  1.06875E+03  2.245E+00  1.200E+01  6.000E-02  1.748E+00
   1    6    6     2     3    7.0127E+01  3.1435E-01   6.9812E+01  0.000E+00  0.000E+00  0.000E+00  1.06403E+03  2.239E+00  1.200E+01  6.000E-02  1.746E+00
   1    7    6     2     4    6.9812E+01  3.1399E-01   6.9498E+01  0.000E+00  0.000E+00  0.000E+00  1.05931E+03  2.233E+00  1.200E+01  6.000E-02  1.744E+00
   1    8    6     2     5    6.9498E+01  3.1363E-01   6.9185E+01  0.000E+00  0.000E+00  0.000E+00  1.05459E+03  2.227E+00  1.200E+01  6.000E-02  1.742E+00
   1    3    5     3     1    2.0000E+00  2.8252E-01   1.7175E+00  0.000E+00  0.000E+00  0.000E+00  1.07555E+03  1.909E+00  9.636E+00  7.227E-02  1.955E+00
   1    3    6     3     2    1.7175E+00  2.4905E-01   1.4684E+00  0.000E+00  0.000E+00  0.000E+00  1.07264E+03  1.727E+00  8.909E+00  6.682E-02  1.864E+00
   1    3    7     3     3    1.4684E+00  1.9718E-01   1.2712E+00  0.000E+00  0.000E+00  0.000E+00  1.06987E+03  1.555E+00  8.218E+00  5.547E-02  1.777E+00
   1    4    8     3     4    1.2712E+00  2.2567E-01   1.0456E+00  0.000E+00  0.000E+00  0.000E+00  1.06682E+03  1.364E+00  7.455E+00  6.709E-02  1.682E+00
   1    5    8     3     5    1.0456E+00  1.5790E-01   8.8768E-01  0.000E+00  0.000E+00  0.000E+00  1.06362E+03  1.164E+00  6.655E+00  4.991E-02  1.582E+00
   1    6    8     3     6    8.8768E-01  5.5980E-02   8.3170E-01  0.000E+00  0.000E+00  0.000E+00  1.06158E+03  1.036E+00  6.145E+00  1.844E-02  1.518E+00
   1    5   10     4     1    1.0000E+01  9.0919E-02   9.9091E+00  0.000E+00  0.000E+00  0.000E+00  1.07836E+03  6.368E-01  1.000E+01  2.500E-02  1.212E+00
   1    5    9     4     2    9.9091E+00  1.8158E-01   9.7275E+00  0.000E+00  0.000E+00  0.000E+00  1.07154E+03  6.315E-01  1.000E+01  5.000E-02  1.211E+00
   1    6    8     4     3    9.7275E+00  1.2689E-01   9.6006E+00  0.000E+00  0.000E+00  0.000E+00  1.06381E+03  6.256E-01  1.000E+01  3.500E-02  1.209E+00
   1    6    8     5     1    1.0432E+01  2.2686E-01   1.0205E+01  0.000E+00  0.000E+00  0.000E+00  1.05868E+03  6.790E-01  1.542E+01  6.166E-02  1.226E+00
   1    7    7     5     2    1.0205E+01  2.7894E-01   9.9265E+00  0.000E+00  0.000E+00  0.000E+00  1.05417E+03  6.732E-01  1.519E+01  7.594E-02  1.224E+00
   1    8    7     5     3    9.9265E+00  1.9221E-01   9.7343E+00  0.000E+00  0.000E+00  0.000E+00  1.04992E+03  6.676E-01  1.497E+01  5.241E-02  1.223E+00
   1    8    6     5     4    9.7343E+00  1.3577E-01   9.5985E+00  0.000E+00  0.000E+00  0.000E+00  1.04691E+03  6.637E-01  1.482E+01  3.706E-02  1.221E+00
   1    9    6     6     1    7.8783E+01  3.2569E-01   7.8458E+01  0.000E+00  0.000E+00  0.000E+00  1.04516E+03  2.428E+00  1.200E+01  6.000E-02  1.809E+00
   1   10    7     6     2    7.8458E+01  3.2533E-01   7.8132E+01  0.000E+00  0.000E+00  0.000E+00  1.04060E+03  2.422E+00  1.200E+01  6.000E-02  1.807E+00
   1   11    7     6     3    7.8132E+01  3.2497E-01   7.7807E+01  0.000E+00  0.000E+00  0.000E+00  1.03605E+03  2.416E+00  1.200E+01  6.000E-02  1.805E+00
   1   12    7     6     4    7.7807E+01  3.2461E-01   7.7483E+01  0.000E+00  0.000E+00  0.000E+00  1.03150E+03  2.410E+00  1.200E+01  6.000E-02  1.803E+00
   1   13    7     6     5    7.7483E+01  2.8633E-02   7.7454E+01  0.000E+00  0.000E+00  0.000E+00  1.02832E+03  2.407E+00  1.200E+01  2.400E-02  3.977E-01
   1   14    9     7     1    1.5000E+02  1.3347E+00   1.4867E+02  0.000E+00  0.000E+00  0.000E+00  1.03987E+03  2.288E+00  5.529E+01  5.593E-01  7.954E-01
   1   13    8     7     2    1.4867E+02  1.8164E+00   1.4685E+02  0.000E+00  0.000E+00  0.000E+00  1.03478E+03  2.279E+00  5.526E+01  6.148E-01  9.849E-01
   1   13    7     7     3    1.4685E+02  1.4337E+00   1.4542E+02  0.000E+00  0.000E+00  0.000E+00  1.02969E+03  2.271E+00  5.522E+01  5.585E-01  8.557E-01
   1   13    6     8     1    2.2287E+02  1.1242E+00   2.2175E+02  0.000E+00  0.000E+00  0.000E+00  1.02514E+03  3.265E+00  4.734E+01  4.824E-01  7.768E-01
   1   13    5     8     2    2.2175E+02  3.8206E-01   2.2136E+02  0.000E+00  0.000E+00  0.000E+00  1.01889E+03  3.260E+00  4.728E+01  4.818E-01  2.643E-01
   1   13    4     8     3    2.2136E+02 -1.1939E+00   2.2256E+02  0.000E+00  0.000E+00  0.000E+00  1.01264E+03  3.263E+00  4.731E+01  4.821E+00 -8.255E-02
   1   13    3     8     4    2.2256E+02 -2.4597E+00   2.2502E+02  0.000E+00  0.000E+00  0.000E+00  1.00640E+03  3.273E+00  4.746E+01  4.836E+00 -1.695E-01
   1   13    2     8     5    2.2502E+02 -1.8297E+00   2.2685E+02  0.000E+00  0.000E+00  0.000E+00  1.00016E+03  3.284E+00  4.763E+01  4.853E+00 -1.257E-01
   1   13    1     8     6    2.2685E+02 -1.0592E+00   2.2791E+02  0.000E+00  0.000E+00  0.000E+00  9.95167E+02  3.292E+00  4.774E+01  2.919E+00 -1.210E-01
   1    8    6     9     1    0.0000E+00  0.0000E+00   0.0000E+00  0.000E+00  0.000E+00  0.000E+00  1.07875E+03  0.000E+00  4.000E+00  0.000E+00  1.000E+00
   1    8    5     9     2    0.0000E+00  0.0000E+00   0.0000E+00  0.000E+00  0.000E+00  0.000E+00  1.07825E+03  0.000E+00  4.000E+00  0.000E+00  1.000E+00



 UBDSV3 SAVING "           GW ET" ON UNIT  61 AT TIME STEP 10, STRESS PERIOD   8
 UBDSV3 SAVING "    UZF RECHARGE" ON UNIT  61 AT TIME STEP 10, STRESS PERIOD   8
 UBDSV3 SAVING " SURFACE LEAKAGE" ON UNIT  61 AT TIME STEP 10, STRESS PERIOD   8
 UBDSV3 SAVING "       HORT+DUNN" ON UNIT  61 AT TIME STEP 10, STRESS PERIOD   8
 UBDSV3 SAVING "  STORAGE CHANGE" ON UNIT  61 AT TIME STEP 10, STRESS PERIOD   8


UNSATURATED ZONE PACKAGE VOLUMETRIC BUDGET FOR  TIME STEP    10 STRESS PERIOD    8
  ------------------------------------------------------------------------------



     CUMULATIVE VOLUMES      L**3       RATES FOR THIS TIME STEP      L**3/T
     ------------------                 ------------------------

           IN:                                      IN:
           ---                                      ---
        INFILTRATION =   106475781.0987          INFILTRATION =           0.8475

          OUT:                                     OUT:
          ----                                     ----
              UZF ET =    37716972.4148                UZF ET =          12.6049
        UZF RECHARGE =     7111905.0520          UZF RECHARGE =           0.2368

            IN - OUT =    61646903.6320              IN - OUT =         -11.9942

          STORAGE:                                 STORAGE:
          --------                                 --------
      STORAGE CHANGE =    61683862.6813        STORAGE CHANGE =         -11.9942

 PERCENT DISCREPANCY IS DIFFERENCE BETWEEN IN-OUT MINUS CHANGE IN STORAGE
 DIVIDED BY THE AVERAGE OF IN AND OUT TIMES 100

 PERCENT DISCREPANCY =          -0.01     PERCENT DISCREPANCY =           0.00






 

            AWU WELLS     PERIOD    8   STEP  10
 AWU WELL      1   LAYER   1   ROW     6   COL     4   RATE     0.00000    
 AWU WELL      2   LAYER   1   ROW     6   COL     5   RATE     0.00000    
 AWU WELL      3   LAYER   1   ROW     7   COL     4   RATE     0.00000    
 AWU WELL      4   LAYER   1   ROW     7   COL     5   RATE     0.00000    
 AWU WELL      5   LAYER   1   ROW     8   COL     4   RATE     0.00000    
 AWU WELL      6   LAYER   1   ROW     8   COL     5   RATE     0.00000    
 
 

   DIVERSION SEGMENTS     PERIOD    8   STEP  10
 SEGMENT      9   RATE     0.00000    
 
 

        SW IRRIGATION     PERIOD    8   STEP  10
 SEGMENT      9   ROW     6   COL     4   RATE     0.00000    
 SEGMENT      9   ROW     6   COL     5   RATE     0.00000    
 SEGMENT      9   ROW     7   COL     4   RATE     0.00000    
 SEGMENT      9   ROW     7   COL     5   RATE     0.00000    
 SEGMENT      9   ROW     8   COL     4   RATE     0.00000    
 SEGMENT      9   ROW     8   COL     5   RATE     0.00000    
 
 

        GW IRRIGATION     PERIOD    8   STEP  10
 AWU WELL      1   ROW     6   COL     4   RATE     0.00000    
 AWU WELL      2   ROW     6   COL     5   RATE     0.00000    
 AWU WELL      3   ROW     7   COL     4   RATE     0.00000    
 AWU WELL      4   ROW     7   COL     5   RATE     0.00000    
 AWU WELL      5   ROW     8   COL     4   RATE     0.00000    
 AWU WELL      6   ROW     8   COL     5   RATE     0.00000    
 
1
  VOLUMETRIC BUDGET FOR ENTIRE MODEL AT END OF TIME STEP   10, STRESS PERIOD   8
  ------------------------------------------------------------------------------

     CUMULATIVE VOLUMES      L**3       RATES FOR THIS TIME STEP      L**3/T
     ------------------                 ------------------------

           IN:                                      IN:
           ---                                      ---
               AWU WELLS =    54660420.0000                 AWU WELLS =           0.0000
      DIVERSION SEGMENTS =    37635848.0000        DIVERSION SEGMENTS =           0.0000
           GW IRRIGATION =           0.0000             GW IRRIGATION =           0.0000
           SW IRRIGATION =           0.0000             SW IRRIGATION =           0.0000
        SYSTEM LOSSES GW =           0.0000          SYSTEM LOSSES GW =           0.0000
        SYSTEM LOSSES SW =           0.0000          SYSTEM LOSSES SW =           0.0000

                TOTAL IN =    92296272.0000                  TOTAL IN =           0.0000

          OUT:                                     OUT:
          ----                                     ----
               AWU WELLS =           0.0000                 AWU WELLS =           0.0000
      DIVERSION SEGMENTS =           0.0000        DIVERSION SEGMENTS =           0.0000
           GW IRRIGATION =    54660420.0000             GW IRRIGATION =           0.0000
           SW IRRIGATION =    37636600.0000             SW IRRIGATION =           0.0000
        SYSTEM LOSSES GW =           0.0000          SYSTEM LOSSES GW =           0.0000
        SYSTEM LOSSES SW =           0.0000          SYSTEM LOSSES SW =           0.0000

               TOTAL OUT =    92297024.0000                 TOTAL OUT =           0.0000

                IN - OUT =        -752.0000                  IN - OUT =           0.0000

     PERCENT DISCREPANCY =          -0.00         PERCENT DISCREPANCY =           0.00



1
  VOLUMETRIC BUDGET FOR ENTIRE MODEL AT END OF TIME STEP   10, STRESS PERIOD   8
  ------------------------------------------------------------------------------

     CUMULATIVE VOLUMES      L**3       RATES FOR THIS TIME STEP      L**3/T
     ------------------                 ------------------------

           IN:                                      IN:
           ---                                      ---
             STORAGE     =    87828560.0000               STORAGE     =           6.7006
       CONSTANT HEAD     =           0.0000         CONSTANT HEAD     =           0.0000
     HEAD DEP BOUNDS     =     4780621.0000       HEAD DEP BOUNDS     =           0.2857
      STREAM LEAKAGE     =   215279728.0000        STREAM LEAKAGE     =          13.6368
        UZF RECHARGE     =     7111901.0000          UZF RECHARGE     =           0.2368
               GW ET     =           0.0000                 GW ET     =           0.0000
     SURFACE LEAKAGE     =           0.0000       SURFACE LEAKAGE     =           0.0000
           AWU WELLS     =           0.0000             AWU WELLS     =           0.0000

                TOTAL IN =   315000800.0000                  TOTAL IN =          20.8599

          OUT:                                     OUT:
          ----                                     ----
             STORAGE     =    71607536.0000               STORAGE     =           5.8875
       CONSTANT HEAD     =           0.0000         CONSTANT HEAD     =           0.0000
     HEAD DEP BOUNDS     =     4896021.0000       HEAD DEP BOUNDS     =           0.2861
      STREAM LEAKAGE     =   163907152.0000        STREAM LEAKAGE     =           6.5425
        UZF RECHARGE     =           0.0000          UZF RECHARGE     =           0.0000
               GW ET     =    19937584.0000                 GW ET     =           8.1437
     SURFACE LEAKAGE     =           0.0000       SURFACE LEAKAGE     =           0.0000
           AWU WELLS     =    54660420.0000             AWU WELLS     =           0.0000

               TOTAL OUT =   315008736.0000                 TOTAL OUT =          20.8599

                IN - OUT =       -7936.0000                  IN - OUT =       1.9073E-06

     PERCENT DISCREPANCY =          -0.00         PERCENT DISCREPANCY =           0.00






         TIME SUMMARY AT END OF TIME STEP   10 IN STRESS PERIOD    8
                    SECONDS     MINUTES      HOURS       DAYS        YEARS
                    -----------------------------------------------------------
   TIME STEP LENGTH  87600.      1460.0      24.333      1.0139     2.77588E-03
 STRESS PERIOD TIME 8.76000E+05  14600.      243.33      10.139     2.77588E-02
         TOTAL TIME 1.67304E+07 2.78840E+05  4647.3      193.64     0.53015    
1
 
 SOLVING FOR HEAD 
                                                   Max.-Head-Change                         Max.-Flux-Residual
  Residual-Control   Outer-Iter.   Inner-Iter.     Column Row Layer    Maximum-Head-Change  Column Row Layer    Maximum-Flux-Residual          L2-NORM 
          0                 1           2             4   13     1      -0.2814390280E-01       4   13    1        -0.1613053448E+01      0.3722653399E+01
          0                 2           2             4   13     1       0.1909207380E-01       4   13    1         0.1137804303E+01      0.1999553434E+01
          0                 3           2             7   13     1      -0.3847266476E-02       7   13    1        -0.2209401115E+00      0.2536174454E+00
          0                 4           2             7   13     1       0.1529009898E-03       7   13    1         0.9032339353E-02      0.1017207724E-01
          0                 5           1             7   13     1      -0.1888283822E-05       7   13    1        -0.1143435070E-03      0.1250719998E-03

    ------------------------------------------------
       NWT REQUIRED            5 OUTER ITERATIONS 
       AND A TOTAL OF          9 INNER ITERATIONS.
    ------------------------------------------------

 NO OUTPUT CONTROL FOR STRESS PERIOD    8   TIME STEP   11
 
 SOLVING FOR HEAD 
                                                   Max.-Head-Change                         Max.-Flux-Residual
  Residual-Control   Outer-Iter.   Inner-Iter.     Column Row Layer    Maximum-Head-Change  Column Row Layer    Maximum-Flux-Residual          L2-NORM 
          0                 1           2             4   13     1      -0.2722226719E-01       4   13    1        -0.1560107697E+01      0.3608048809E+01
          0                 2           2             4   13     1       0.2418515885E-01       4   13    1         0.1443945987E+01      0.2526692170E+01
          0                 3           2             7   13     1      -0.4850650370E-02       7   13    1        -0.2785804404E+00      0.3197192783E+00
          0                 4           2             7   13     1       0.1927990459E-03       7   13    1         0.1138873255E-01      0.1280790704E-01
          0                 5           1             7   13     1      -0.2380998552E-05       7   13    1        -0.1442252599E-03      0.1563770068E-03

    ------------------------------------------------
       NWT REQUIRED            5 OUTER ITERATIONS 
       AND A TOTAL OF          9 INNER ITERATIONS.
    ------------------------------------------------

 NO OUTPUT CONTROL FOR STRESS PERIOD    8   TIME STEP   12
 
 SOLVING FOR HEAD 
                                                   Max.-Head-Change                         Max.-Flux-Residual
  Residual-Control   Outer-Iter.   Inner-Iter.     Column Row Layer    Maximum-Head-Change  Column Row Layer    Maximum-Flux-Residual          L2-NORM 
          0                 1           2             4   13     1      -0.2691054235E-01       4   13    1        -0.1542512970E+01      0.3534274398E+01
          0                 2           2             4   13     1       0.2418727612E-01       4   13    1         0.1444103289E+01      0.2525497776E+01
          0                 3           2             7   13     1      -0.4859704433E-02       7   13    1        -0.2790994305E+00      0.3201081380E+00
          0                 4           2             7   13     1       0.1931560435E-03       7   13    1         0.1140994145E-01      0.1282458463E-01
          0                 5           1             7   13     1      -0.2387292890E-05       7   13    1        -0.1445990026E-03      0.1569433339E-03

    ------------------------------------------------
       NWT REQUIRED            5 OUTER ITERATIONS 
       AND A TOTAL OF          9 INNER ITERATIONS.
    ------------------------------------------------

 NO OUTPUT CONTROL FOR STRESS PERIOD    8   TIME STEP   13
 
 SOLVING FOR HEAD 
                                                   Max.-Head-Change                         Max.-Flux-Residual
  Residual-Control   Outer-Iter.   Inner-Iter.     Column Row Layer    Maximum-Head-Change  Column Row Layer    Maximum-Flux-Residual          L2-NORM 
          0                 1           2             4   13     1      -0.2662618938E-01       4   13    1        -0.1526476584E+01      0.3465724751E+01
          0                 2           2             4   13     1       0.2105682875E-01       4   13    1         0.1255880774E+01      0.2199249182E+01
          0                 3           2             7   13     1      -0.4272353530E-02       7   13    1        -0.2453574206E+00      0.2808197550E+00
          0                 4           2             7   13     1       0.1697977042E-03       7   13    1         0.1003062877E-01      0.1126197804E-01
          0                 5           1             7   13     1      -0.2098231213E-05       7   13    1        -0.1270522130E-03      0.1382474694E-03

    ------------------------------------------------
       NWT REQUIRED            5 OUTER ITERATIONS 
       AND A TOTAL OF          9 INNER ITERATIONS.
    ------------------------------------------------

 NO OUTPUT CONTROL FOR STRESS PERIOD    8   TIME STEP   14
 
 SOLVING FOR HEAD 
                                                   Max.-Head-Change                         Max.-Flux-Residual
  Residual-Control   Outer-Iter.   Inner-Iter.     Column Row Layer    Maximum-Head-Change  Column Row Layer    Maximum-Flux-Residual          L2-NORM 
          0                 1           2             5    6     1       0.1387097584E-01       5    6    1         0.7506371722E+00      0.2313495619E+01
          0                 2           2             4   13     1       0.7626013929E-02       4   13    1         0.4547032901E+00      0.8209798371E+00
          0                 3           2             4   13     1      -0.5109481547E-03       4   13    1        -0.3132308735E-01      0.5503893163E-01
          0                 4           1             4   13     1       0.1978832882E-04       4   13    1         0.1247294528E-02      0.2102519190E-02

    ------------------------------------------------
       NWT REQUIRED            4 OUTER ITERATIONS 
       AND A TOTAL OF          7 INNER ITERATIONS.
    ------------------------------------------------

 OUTPUT CONTROL FOR STRESS PERIOD    8   TIME STEP   15
    PRINT BUDGET
    SAVE BUDGET
 UBDSV1 SAVING "         STORAGE" ON UNIT 102 AT TIME STEP 15, STRESS PERIOD   8
 UBDSV2 SAVING "   CONSTANT HEAD" ON UNIT 102 AT TIME STEP 15, STRESS PERIOD   8
 UBDSV1 SAVING "FLOW RIGHT FACE " ON UNIT 102 AT TIME STEP 15, STRESS PERIOD   8
 UBDSV1 SAVING "FLOW FRONT FACE " ON UNIT 102 AT TIME STEP 15, STRESS PERIOD   8

  HEAD DEP BOUNDS   PERIOD    8   STEP    15
 BOUNDARY      1   LAYER   1   ROW    13   COL     1   RATE   -0.284298    
 BOUNDARY      2   LAYER   1   ROW    14   COL     9   RATE    0.285675    



 STREAM LISTING     PERIOD      8   STEP       15

 LAYER ROW COL. STREAM  RCH.  FLOW INTO     FLOW TO   FLOW OUT OF   OVRLND.     DIRECT     STREAM       STREAM     STREAM     STREAM   STREAMBED  STREAMBED
                SEG.NO.  NO.  STRM. RCH.    AQUIFER    STRM. RCH.    RUNOFF     PRECIP       ET          HEAD       DEPTH      WIDTH   CONDCTNC.   GRADIENT

   1    1    1     1     1    7.5000E+01  4.2232E-01   7.4578E+01  0.000E+00  0.000E+00  0.000E+00  1.09475E+03  1.698E+00  1.998E+01  8.990E-02  1.566E+00
   1    2    2     1     2    7.4578E+01  6.5422E-01   7.3923E+01  0.000E+00  0.000E+00  0.000E+00  1.08975E+03  1.692E+00  1.992E+01  1.394E-01  1.564E+00
   1    3    3     1     3    7.3923E+01  5.5813E-01   7.3365E+01  0.000E+00  0.000E+00  0.000E+00  1.08410E+03  1.685E+00  1.985E+01  1.191E-01  1.562E+00
   1    3    4     1     4    7.3365E+01  5.1411E-01   7.2851E+01  0.000E+00  0.000E+00  0.000E+00  1.07909E+03  1.679E+00  1.980E+01  1.099E-01  1.560E+00
   1    4    5     2     1    7.0851E+01  4.0967E-01   7.0442E+01  0.000E+00  0.000E+00  0.000E+00  1.07419E+03  2.252E+00  1.200E+01  7.800E-02  1.751E+00
   1    5    6     2     2    7.0442E+01  3.1471E-01   7.0127E+01  0.000E+00  0.000E+00  0.000E+00  1.06875E+03  2.245E+00  1.200E+01  6.000E-02  1.748E+00
   1    6    6     2     3    7.0127E+01  3.1435E-01   6.9812E+01  0.000E+00  0.000E+00  0.000E+00  1.06403E+03  2.239E+00  1.200E+01  6.000E-02  1.746E+00
   1    7    6     2     4    6.9812E+01  3.1399E-01   6.9498E+01  0.000E+00  0.000E+00  0.000E+00  1.05931E+03  2.233E+00  1.200E+01  6.000E-02  1.744E+00
   1    8    6     2     5    6.9498E+01  3.1363E-01   6.9185E+01  0.000E+00  0.000E+00  0.000E+00  1.05459E+03  2.227E+00  1.200E+01  6.000E-02  1.742E+00
   1    3    5     3     1    2.0000E+00  2.8252E-01   1.7175E+00  0.000E+00  0.000E+00  0.000E+00  1.07555E+03  1.909E+00  9.636E+00  7.227E-02  1.955E+00
   1    3    6     3     2    1.7175E+00  2.4905E-01   1.4684E+00  0.000E+00  0.000E+00  0.000E+00  1.07264E+03  1.727E+00  8.909E+00  6.682E-02  1.864E+00
   1    3    7     3     3    1.4684E+00  1.9718E-01   1.2712E+00  0.000E+00  0.000E+00  0.000E+00  1.06987E+03  1.555E+00  8.218E+00  5.547E-02  1.777E+00
   1    4    8     3     4    1.2712E+00  2.2567E-01   1.0456E+00  0.000E+00  0.000E+00  0.000E+00  1.06682E+03  1.364E+00  7.455E+00  6.709E-02  1.682E+00
   1    5    8     3     5    1.0456E+00  1.5790E-01   8.8768E-01  0.000E+00  0.000E+00  0.000E+00  1.06362E+03  1.164E+00  6.655E+00  4.991E-02  1.582E+00
   1    6    8     3     6    8.8768E-01  5.5980E-02   8.3170E-01  0.000E+00  0.000E+00  0.000E+00  1.06158E+03  1.036E+00  6.145E+00  1.844E-02  1.518E+00
   1    5   10     4     1    1.0000E+01  9.0919E-02   9.9091E+00  0.000E+00  0.000E+00  0.000E+00  1.07836E+03  6.368E-01  1.000E+01  2.500E-02  1.212E+00
   1    5    9     4     2    9.9091E+00  1.8158E-01   9.7275E+00  0.000E+00  0.000E+00  0.000E+00  1.07154E+03  6.315E-01  1.000E+01  5.000E-02  1.211E+00
   1    6    8     4     3    9.7275E+00  1.2689E-01   9.6006E+00  0.000E+00  0.000E+00  0.000E+00  1.06381E+03  6.256E-01  1.000E+01  3.500E-02  1.209E+00
   1    6    8     5     1    1.0432E+01  2.2686E-01   1.0205E+01  0.000E+00  0.000E+00  0.000E+00  1.05868E+03  6.790E-01  1.542E+01  6.166E-02  1.226E+00
   1    7    7     5     2    1.0205E+01  2.7894E-01   9.9265E+00  0.000E+00  0.000E+00  0.000E+00  1.05417E+03  6.732E-01  1.519E+01  7.594E-02  1.224E+00
   1    8    7     5     3    9.9265E+00  1.9221E-01   9.7343E+00  0.000E+00  0.000E+00  0.000E+00  1.04992E+03  6.676E-01  1.497E+01  5.241E-02  1.223E+00
   1    8    6     5     4    9.7343E+00  1.3577E-01   9.5985E+00  0.000E+00  0.000E+00  0.000E+00  1.04691E+03  6.637E-01  1.482E+01  3.706E-02  1.221E+00
   1    9    6     6     1    7.8783E+01  3.2569E-01   7.8458E+01  0.000E+00  0.000E+00  0.000E+00  1.04516E+03  2.428E+00  1.200E+01  6.000E-02  1.809E+00
   1   10    7     6     2    7.8458E+01  3.2533E-01   7.8132E+01  0.000E+00  0.000E+00  0.000E+00  1.04060E+03  2.422E+00  1.200E+01  6.000E-02  1.807E+00
   1   11    7     6     3    7.8132E+01  3.2497E-01   7.7807E+01  0.000E+00  0.000E+00  0.000E+00  1.03605E+03  2.416E+00  1.200E+01  6.000E-02  1.805E+00
   1   12    7     6     4    7.7807E+01  3.2461E-01   7.7483E+01  0.000E+00  0.000E+00  0.000E+00  1.03150E+03  2.410E+00  1.200E+01  6.000E-02  1.803E+00
   1   13    7     6     5    7.7483E+01  2.8921E-02   7.7454E+01  0.000E+00  0.000E+00  0.000E+00  1.02832E+03  2.407E+00  1.200E+01  2.400E-02  4.017E-01
   1   14    9     7     1    1.5000E+02  1.3346E+00   1.4867E+02  0.000E+00  0.000E+00  0.000E+00  1.03987E+03  2.288E+00  5.529E+01  5.593E-01  7.954E-01
   1   13    8     7     2    1.4867E+02  1.8170E+00   1.4685E+02  0.000E+00  0.000E+00  0.000E+00  1.03478E+03  2.279E+00  5.526E+01  6.148E-01  9.852E-01
   1   13    7     7     3    1.4685E+02  1.4403E+00   1.4541E+02  0.000E+00  0.000E+00  0.000E+00  1.02969E+03  2.271E+00  5.522E+01  5.585E-01  8.597E-01
   1   13    6     8     1    2.2286E+02  1.1380E+00   2.2172E+02  0.000E+00  0.000E+00  0.000E+00  1.02514E+03  3.265E+00  4.734E+01  4.824E-01  7.864E-01
   1   13    5     8     2    2.2172E+02  4.0998E-01   2.2131E+02  0.000E+00  0.000E+00  0.000E+00  1.01889E+03  3.260E+00  4.727E+01  4.817E-01  2.837E-01
   1   13    4     8     3    2.2131E+02 -1.0567E+00   2.2237E+02  0.000E+00  0.000E+00  0.000E+00  1.01264E+03  3.262E+00  4.730E+01  4.820E+00 -7.308E-02
   1   13    3     8     4    2.2237E+02 -2.3294E+00   2.2470E+02  0.000E+00  0.000E+00  0.000E+00  1.00640E+03  3.271E+00  4.744E+01  4.834E+00 -1.606E-01
   1   13    2     8     5    2.2470E+02 -1.7434E+00   2.2644E+02  0.000E+00  0.000E+00  0.000E+00  1.00016E+03  3.283E+00  4.760E+01  4.850E+00 -1.198E-01
   1   13    1     8     6    2.2644E+02 -9.2375E-01   2.2737E+02  0.000E+00  0.000E+00  0.000E+00  9.95165E+02  3.290E+00  4.770E+01  2.917E+00 -1.056E-01
   1    8    6     9     1    0.0000E+00  0.0000E+00   0.0000E+00  0.000E+00  0.000E+00  0.000E+00  1.07875E+03  0.000E+00  4.000E+00  0.000E+00  1.000E+00
   1    8    5     9     2    0.0000E+00  0.0000E+00   0.0000E+00  0.000E+00  0.000E+00  0.000E+00  1.07825E+03  0.000E+00  4.000E+00  0.000E+00  1.000E+00



 UBDSV3 SAVING "           GW ET" ON UNIT  61 AT TIME STEP 15, STRESS PERIOD   8
 UBDSV3 SAVING "    UZF RECHARGE" ON UNIT  61 AT TIME STEP 15, STRESS PERIOD   8
 UBDSV3 SAVING " SURFACE LEAKAGE" ON UNIT  61 AT TIME STEP 15, STRESS PERIOD   8
 UBDSV3 SAVING "       HORT+DUNN" ON UNIT  61 AT TIME STEP 15, STRESS PERIOD   8
 UBDSV3 SAVING "  STORAGE CHANGE" ON UNIT  61 AT TIME STEP 15, STRESS PERIOD   8


UNSATURATED ZONE PACKAGE VOLUMETRIC BUDGET FOR  TIME STEP    15 STRESS PERIOD    8
  ------------------------------------------------------------------------------



     CUMULATIVE VOLUMES      L**3       RATES FOR THIS TIME STEP      L**3/T
     ------------------                 ------------------------

           IN:                                      IN:
           ---                                      ---
        INFILTRATION =   108655251.5674          INFILTRATION =           0.8475

          OUT:                                     OUT:
          ----                                     ----
              UZF ET =    43237926.0580                UZF ET =          12.6049
        UZF RECHARGE =     7212164.7182          UZF RECHARGE =           0.2266

            IN - OUT =    58205160.7912              IN - OUT =         -11.9841

          STORAGE:                                 STORAGE:
          --------                                 --------
      STORAGE CHANGE =    58243553.5181        STORAGE CHANGE =         -11.9784

 PERCENT DISCREPANCY IS DIFFERENCE BETWEEN IN-OUT MINUS CHANGE IN STORAGE
 DIVIDED BY THE AVERAGE OF IN AND OUT TIMES 100

 PERCENT DISCREPANCY =          -0.01     PERCENT DISCREPANCY =          -0.04






 

            AWU WELLS     PERIOD    8   STEP  15
 AWU WELL      1   LAYER   1   ROW     6   COL     4   RATE     0.00000    
 AWU WELL      2   LAYER   1   ROW     6   COL     5   RATE     0.00000    
 AWU WELL      3   LAYER   1   ROW     7   COL     4   RATE     0.00000    
 AWU WELL      4   LAYER   1   ROW     7   COL     5   RATE     0.00000    
 AWU WELL      5   LAYER   1   ROW     8   COL     4   RATE     0.00000    
 AWU WELL      6   LAYER   1   ROW     8   COL     5   RATE     0.00000    
 
 

   DIVERSION SEGMENTS     PERIOD    8   STEP  15
 SEGMENT      9   RATE     0.00000    
 
 

        SW IRRIGATION     PERIOD    8   STEP  15
 SEGMENT      9   ROW     6   COL     4   RATE     0.00000    
 SEGMENT      9   ROW     6   COL     5   RATE     0.00000    
 SEGMENT      9   ROW     7   COL     4   RATE     0.00000    
 SEGMENT      9   ROW     7   COL     5   RATE     0.00000    
 SEGMENT      9   ROW     8   COL     4   RATE     0.00000    
 SEGMENT      9   ROW     8   COL     5   RATE     0.00000    
 
 

        GW IRRIGATION     PERIOD    8   STEP  15
 AWU WELL      1   ROW     6   COL     4   RATE     0.00000    
 AWU WELL      2   ROW     6   COL     5   RATE     0.00000    
 AWU WELL      3   ROW     7   COL     4   RATE     0.00000    
 AWU WELL      4   ROW     7   COL     5   RATE     0.00000    
 AWU WELL      5   ROW     8   COL     4   RATE     0.00000    
 AWU WELL      6   ROW     8   COL     5   RATE     0.00000    
 
1
  VOLUMETRIC BUDGET FOR ENTIRE MODEL AT END OF TIME STEP   15, STRESS PERIOD   8
  ------------------------------------------------------------------------------

     CUMULATIVE VOLUMES      L**3       RATES FOR THIS TIME STEP      L**3/T
     ------------------                 ------------------------

           IN:                                      IN:
           ---                                      ---
               AWU WELLS =    54660420.0000                 AWU WELLS =           0.0000
      DIVERSION SEGMENTS =    39444064.0000        DIVERSION SEGMENTS =           0.0000
           GW IRRIGATION =           0.0000             GW IRRIGATION =           0.0000
           SW IRRIGATION =           0.0000             SW IRRIGATION =           0.0000
        SYSTEM LOSSES GW =           0.0000          SYSTEM LOSSES GW =           0.0000
        SYSTEM LOSSES SW =           0.0000          SYSTEM LOSSES SW =           0.0000

                TOTAL IN =    94104480.0000                  TOTAL IN =           0.0000

          OUT:                                     OUT:
          ----                                     ----
               AWU WELLS =           0.0000                 AWU WELLS =           0.0000
      DIVERSION SEGMENTS =           0.0000        DIVERSION SEGMENTS =           0.0000
           GW IRRIGATION =    54660420.0000             GW IRRIGATION =           0.0000
           SW IRRIGATION =    39444852.0000             SW IRRIGATION =           0.0000
        SYSTEM LOSSES GW =           0.0000          SYSTEM LOSSES GW =           0.0000
        SYSTEM LOSSES SW =           0.0000          SYSTEM LOSSES SW =           0.0000

               TOTAL OUT =    94105272.0000                 TOTAL OUT =           0.0000

                IN - OUT =        -792.0000                  IN - OUT =           0.0000

     PERCENT DISCREPANCY =          -0.00         PERCENT DISCREPANCY =           0.00



1
  VOLUMETRIC BUDGET FOR ENTIRE MODEL AT END OF TIME STEP   15, STRESS PERIOD   8
  ------------------------------------------------------------------------------

     CUMULATIVE VOLUMES      L**3       RATES FOR THIS TIME STEP      L**3/T
     ------------------                 ------------------------

           IN:                                      IN:
           ---                                      ---
             STORAGE     =    90586472.0000               STORAGE     =           5.4842
       CONSTANT HEAD     =           0.0000         CONSTANT HEAD     =           0.0000
     HEAD DEP BOUNDS     =     4905747.5000       HEAD DEP BOUNDS     =           0.2857
      STREAM LEAKAGE     =   221242672.0000        STREAM LEAKAGE     =          13.6861
        UZF RECHARGE     =     7212160.5000          UZF RECHARGE     =           0.2266
               GW ET     =           0.0000                 GW ET     =           0.0000
     SURFACE LEAKAGE     =           0.0000       SURFACE LEAKAGE     =           0.0000
           AWU WELLS     =           0.0000             AWU WELLS     =           0.0000

                TOTAL IN =   323947040.0000                  TOTAL IN =          19.6825

          OUT:                                     OUT:
          ----                                     ----
             STORAGE     =    74020840.0000               STORAGE     =           5.2909
       CONSTANT HEAD     =           0.0000         CONSTANT HEAD     =           0.0000
     HEAD DEP BOUNDS     =     5020836.0000       HEAD DEP BOUNDS     =           0.2843
      STREAM LEAKAGE     =   166773664.0000        STREAM LEAKAGE     =           6.0533
        UZF RECHARGE     =           0.0000          UZF RECHARGE     =           0.0000
               GW ET     =    23479214.0000                 GW ET     =           8.0541
     SURFACE LEAKAGE     =           0.0000       SURFACE LEAKAGE     =           0.0000
           AWU WELLS     =    54660420.0000             AWU WELLS     =           0.0000

               TOTAL OUT =   323954976.0000                 TOTAL OUT =          19.6826

                IN - OUT =       -7936.0000                  IN - OUT =      -1.9073E-05

     PERCENT DISCREPANCY =          -0.00         PERCENT DISCREPANCY =          -0.00






         TIME SUMMARY AT END OF TIME STEP   15 IN STRESS PERIOD    8
                    SECONDS     MINUTES      HOURS       DAYS        YEARS
                    -----------------------------------------------------------
   TIME STEP LENGTH  87600.      1460.0      24.333      1.0139     2.77588E-03
 STRESS PERIOD TIME 1.31400E+06  21900.      365.00      15.208     4.16381E-02
         TOTAL TIME 1.71684E+07 2.86140E+05  4769.0      198.71     0.54403    
1
 
 SOLVING FOR HEAD 
                                                   Max.-Head-Change                         Max.-Flux-Residual
  Residual-Control   Outer-Iter.   Inner-Iter.     Column Row Layer    Maximum-Head-Change  Column Row Layer    Maximum-Flux-Residual          L2-NORM 
          0                 1           2             5    6     1       0.1334263263E-01       5    6    1         0.7214569232E+00      0.1981336643E+01
          0                 2           2             5    6     1      -0.1297873050E-02       5    6    1        -0.7214559823E-01      0.1929578445E+00
          0                 3           1             5    6     1       0.8838018108E-04       5    6    1         0.5050194955E-02      0.1350437885E-01

    ------------------------------------------------
       NWT REQUIRED            3 OUTER ITERATIONS 
       AND A TOTAL OF          5 INNER ITERATIONS.
    ------------------------------------------------

 NO OUTPUT CONTROL FOR STRESS PERIOD    8   TIME STEP   16
 
 SOLVING FOR HEAD 
                                                   Max.-Head-Change                         Max.-Flux-Residual
  Residual-Control   Outer-Iter.   Inner-Iter.     Column Row Layer    Maximum-Head-Change  Column Row Layer    Maximum-Flux-Residual          L2-NORM 
          0                 1           2             5    6     1       0.1284456313E-01       5    6    1         0.6939670610E+00      0.1920141228E+01
          0                 2           2             5    6     1      -0.1249424595E-02       5    6    1        -0.6939662043E-01      0.1867293615E+00
          0                 3           1             5    6     1       0.8508102360E-04       5    6    1         0.4857766342E-02      0.1307227775E-01

    ------------------------------------------------
       NWT REQUIRED            3 OUTER ITERATIONS 
       AND A TOTAL OF          5 INNER ITERATIONS.
    ------------------------------------------------

 NO OUTPUT CONTROL FOR STRESS PERIOD    8   TIME STEP   17
 
 SOLVING FOR HEAD 
                                                   Max.-Head-Change                         Max.-Flux-Residual
  Residual-Control   Outer-Iter.   Inner-Iter.     Column Row Layer    Maximum-Head-Change  Column Row Layer    Maximum-Flux-Residual          L2-NORM 
          0                 1           2             5    6     1       0.1237511040E-01       5    6    1         0.6680735780E+00      0.1862644327E+01
          0                 2           2             5    6     1      -0.1203759746E-02       5    6    1        -0.6680727982E-01      0.1808684561E+00
          0                 3           1             5    6     1       0.8197141940E-04       5    6    1         0.4676512346E-02      0.1266585805E-01

    ------------------------------------------------
       NWT REQUIRED            3 OUTER ITERATIONS 
       AND A TOTAL OF          5 INNER ITERATIONS.
    ------------------------------------------------

 NO OUTPUT CONTROL FOR STRESS PERIOD    8   TIME STEP   18
 
 SOLVING FOR HEAD 
                                                   Max.-Head-Change                         Max.-Flux-Residual
  Residual-Control   Outer-Iter.   Inner-Iter.     Column Row Layer    Maximum-Head-Change  Column Row Layer    Maximum-Flux-Residual          L2-NORM 
          0                 1           2             5    6     1       0.1193198223E-01       5    6    1         0.6436483555E+00      0.1808551035E+01
          0                 2           2             5    6     1      -0.1160655536E-02       5    6    1        -0.6436476456E-01      0.1753488572E+00
          0                 3           1             5    6     1       0.7903618565E-04       5    6    1         0.4505536148E-02      0.1228260821E-01

    ------------------------------------------------
       NWT REQUIRED            3 OUTER ITERATIONS 
       AND A TOTAL OF          5 INNER ITERATIONS.
    ------------------------------------------------

 NO OUTPUT CONTROL FOR STRESS PERIOD    8   TIME STEP   19
 
 SOLVING FOR HEAD 
                                                   Max.-Head-Change                         Max.-Flux-Residual
  Residual-Control   Outer-Iter.   Inner-Iter.     Column Row Layer    Maximum-Head-Change  Column Row Layer    Maximum-Flux-Residual          L2-NORM 
          0                 1           2             5    6     1       0.1151366244E-01       5    6    1         0.6206056437E+00      0.1757608906E+01
          0                 2           2             5    6     1      -0.1119964481E-02       5    6    1        -0.6206049972E-01      0.1701460374E+00
          0                 3           1             5    6     1       0.7626527841E-04       5    6    1         0.4344237462E-02      0.1192157254E-01

    ------------------------------------------------
       NWT REQUIRED            3 OUTER ITERATIONS 
       AND A TOTAL OF          5 INNER ITERATIONS.
    ------------------------------------------------

 NO OUTPUT CONTROL FOR STRESS PERIOD    8   TIME STEP   20
 
 SOLVING FOR HEAD 
                                                   Max.-Head-Change                         Max.-Flux-Residual
  Residual-Control   Outer-Iter.   Inner-Iter.     Column Row Layer    Maximum-Head-Change  Column Row Layer    Maximum-Flux-Residual          L2-NORM 
          0                 1           2             5    6     1       0.1111845120E-01       5    6    1         0.5988501787E+00      0.1709599594E+01
          0                 2           2             5    6     1      -0.1081521237E-02       5    6    1        -0.5988495903E-01      0.1652394357E+00
          0                 3           1             5    6     1       0.7364743938E-04       5    6    1         0.4191949506E-02      0.1158097221E-01

    ------------------------------------------------
       NWT REQUIRED            3 OUTER ITERATIONS 
       AND A TOTAL OF          5 INNER ITERATIONS.
    ------------------------------------------------

 NO OUTPUT CONTROL FOR STRESS PERIOD    8   TIME STEP   21
 
 SOLVING FOR HEAD 
                                                   Max.-Head-Change                         Max.-Flux-Residual
  Residual-Control   Outer-Iter.   Inner-Iter.     Column Row Layer    Maximum-Head-Change  Column Row Layer    Maximum-Flux-Residual          L2-NORM 
          0                 1           2             4    7     1      -0.1810665256E+00       4    7    1        -0.9461392017E+01      0.2322835670E+02
          0                 2           2             4    7     1       0.1761262891E-01       4    7    1         0.9461264220E+00      0.2321807035E+01
          0                 3           2             4    7     1      -0.1199356754E-02       4    7    1        -0.6622899909E-01      0.1624801832E+00
          0                 4           1             4    7     1       0.4772351814E-04       4    7    1         0.2708769263E-02      0.6643817297E-02

    ------------------------------------------------
       NWT REQUIRED            4 OUTER ITERATIONS 
       AND A TOTAL OF          7 INNER ITERATIONS.
    ------------------------------------------------

 NO OUTPUT CONTROL FOR STRESS PERIOD    8   TIME STEP   22
 
 SOLVING FOR HEAD 
                                                   Max.-Head-Change                         Max.-Flux-Residual
  Residual-Control   Outer-Iter.   Inner-Iter.     Column Row Layer    Maximum-Head-Change  Column Row Layer    Maximum-Flux-Residual          L2-NORM 
          0                 1           2             4   13     1      -0.2305881965E-01       4   13    1        -0.1322699863E+01      0.3203737973E+01
          0                 2           2             4   13     1       0.2416419790E-01       4   13    1         0.1442914512E+01      0.2518359031E+01
          0                 3           2             7   13     1      -0.4942471951E-02       7   13    1        -0.2838341306E+00      0.3238900266E+00
          0                 4           2             7   13     1       0.1965391523E-03       7   13    1         0.1160353440E-01      0.1297567318E-01
          0                 5           1             7   13     1      -0.2422930410E-05       7   13    1        -0.1468979142E-03      0.1586249376E-03

    ------------------------------------------------
       NWT REQUIRED            5 OUTER ITERATIONS 
       AND A TOTAL OF          9 INNER ITERATIONS.
    ------------------------------------------------

 NO OUTPUT CONTROL FOR STRESS PERIOD    8   TIME STEP   23
 
 SOLVING FOR HEAD 
                                                   Max.-Head-Change                         Max.-Flux-Residual
  Residual-Control   Outer-Iter.   Inner-Iter.     Column Row Layer    Maximum-Head-Change  Column Row Layer    Maximum-Flux-Residual          L2-NORM 
          0                 1           2             4   13     1      -0.2314687971E-01       4   13    1        -0.1328094663E+01      0.3160056166E+01
          0                 2           2             4   13     1       0.2417565069E-01       4   13    1         0.1443625256E+01      0.2518032620E+01
          0                 3           2             7   13     1      -0.4949625236E-02       7   13    1        -0.2842456599E+00      0.3241877885E+00
          0                 4           2             7   13     1       0.1968220486E-03       7   13    1         0.1162024433E-01      0.1298837295E-01
          0                 5           1             7   13     1      -0.2426699037E-05       7   13    1        -0.1471295150E-03      0.1593378056E-03

    ------------------------------------------------
       NWT REQUIRED            5 OUTER ITERATIONS 
       AND A TOTAL OF          9 INNER ITERATIONS.
    ------------------------------------------------

 NO OUTPUT CONTROL FOR STRESS PERIOD    8   TIME STEP   24
 
 SOLVING FOR HEAD 
                                                   Max.-Head-Change                         Max.-Flux-Residual
  Residual-Control   Outer-Iter.   Inner-Iter.     Column Row Layer    Maximum-Head-Change  Column Row Layer    Maximum-Flux-Residual          L2-NORM 
          0                 1           2             4   13     1      -0.2322134666E-01       4   13    1        -0.1332681645E+01      0.3119372756E+01
          0                 2           2             4   13     1       0.1853485421E-01       4   13    1         0.1104716233E+01      0.1932218225E+01
          0                 3           2             7   13     1      -0.3874769342E-02       7   13    1        -0.2225159118E+00      0.2526835147E+00
          0                 4           2             7   13     1       0.1540838975E-03       7   13    1         0.9096899709E-02      0.1013749536E-01
          0                 5           1             7   13     1      -0.1898640714E-05       7   13    1        -0.1151170070E-03      0.1233323204E-03

    ------------------------------------------------
       NWT REQUIRED            5 OUTER ITERATIONS 
       AND A TOTAL OF          9 INNER ITERATIONS.
    ------------------------------------------------

 NO OUTPUT CONTROL FOR STRESS PERIOD    8   TIME STEP   25
 
 SOLVING FOR HEAD 
                                                   Max.-Head-Change                         Max.-Flux-Residual
  Residual-Control   Outer-Iter.   Inner-Iter.     Column Row Layer    Maximum-Head-Change  Column Row Layer    Maximum-Flux-Residual          L2-NORM 
          0                 1           2             4   13     1      -0.2271372728E-01       4   13    1        -0.1303495548E+01      0.3046495319E+01
          0                 2           2             4   13     1       0.2417829799E-01       4   13    1         0.1443815168E+01      0.2516345898E+01
          0                 3           2             7   13     1      -0.4964049385E-02       7   13    1        -0.2850750694E+00      0.3247999075E+00
          0                 4           2             7   13     1       0.1973986194E-03       7   13    1         0.1165433618E-01      0.1301200621E-01
          0                 5           1             7   13     1      -0.2433390579E-05       7   13    1        -0.1475324830E-03      0.1590066476E-03

    ------------------------------------------------
       NWT REQUIRED            5 OUTER ITERATIONS 
       AND A TOTAL OF          9 INNER ITERATIONS.
    ------------------------------------------------

 NO OUTPUT CONTROL FOR STRESS PERIOD    8   TIME STEP   26
 
 SOLVING FOR HEAD 
                                                   Max.-Head-Change                         Max.-Flux-Residual
  Residual-Control   Outer-Iter.   Inner-Iter.     Column Row Layer    Maximum-Head-Change  Column Row Layer    Maximum-Flux-Residual          L2-NORM 
          0                 1           2             4   13     1      -0.2282858070E-01       4   13    1        -0.1310400709E+01      0.3013867461E+01
          0                 2           2             4   13     1       0.2418977416E-01       4   13    1         0.1444524664E+01      0.2516283124E+01
          0                 3           2             7   13     1      -0.4970778897E-02       7   13    1        -0.2854619492E+00      0.3251276073E+00
          0                 4           2             7   13     1       0.1976666065E-03       7   13    1         0.1167017930E-01      0.1302630732E-01
          0                 5           1             7   13     1      -0.2436185573E-05       7   13    1        -0.1477024675E-03      0.1595281066E-03

    ------------------------------------------------
       NWT REQUIRED            5 OUTER ITERATIONS 
       AND A TOTAL OF          9 INNER ITERATIONS.
    ------------------------------------------------

 NO OUTPUT CONTROL FOR STRESS PERIOD    8   TIME STEP   27
 
 SOLVING FOR HEAD 
                                                   Max.-Head-Change                         Max.-Flux-Residual
  Residual-Control   Outer-Iter.   Inner-Iter.     Column Row Layer    Maximum-Head-Change  Column Row Layer    Maximum-Flux-Residual          L2-NORM 
          0                 1           2             4   13     1      -0.2292749324E-01       4   13    1        -0.1316364982E+01      0.2983344758E+01
          0                 2           2             4   13     1       0.2095308594E-01       4   13    1         0.1249936296E+01      0.2179279689E+01
          0                 3           2             7   13     1      -0.4368359050E-02       7   13    1        -0.2508651079E+00      0.2847992150E+00
          0                 4           2             7   13     1       0.1737104615E-03       7   13    1         0.1025578662E-01      0.1142125909E-01
          0                 5           1             7   13     1      -0.2140442436E-05       7   13    1        -0.1297728800E-03      0.1391716749E-03

    ------------------------------------------------
       NWT REQUIRED            5 OUTER ITERATIONS 
       AND A TOTAL OF          9 INNER ITERATIONS.
    ------------------------------------------------

 NO OUTPUT CONTROL FOR STRESS PERIOD    8   TIME STEP   28
 
 SOLVING FOR HEAD 
                                                   Max.-Head-Change                         Max.-Flux-Residual
  Residual-Control   Outer-Iter.   Inner-Iter.     Column Row Layer    Maximum-Head-Change  Column Row Layer    Maximum-Flux-Residual          L2-NORM 
          0                 1           2             5    6     1       0.1236411874E-01       5    6    1         0.6666534828E+00      0.1804356519E+01
          0                 2           2             4   13     1       0.2761435439E-02       4   13    1         0.1643737226E+00      0.3389155966E+00
          0                 3           2             4   13     1      -0.1848668512E-03       4   13    1        -0.1131359917E-01      0.2295038236E-01
          0                 4           1             4   13     1       0.7153728258E-05       4   13    1         0.4501273643E-03      0.8974836796E-03

    ------------------------------------------------
       NWT REQUIRED            4 OUTER ITERATIONS 
       AND A TOTAL OF          7 INNER ITERATIONS.
    ------------------------------------------------

 NO OUTPUT CONTROL FOR STRESS PERIOD    8   TIME STEP   29
 
 SOLVING FOR HEAD 
                                                   Max.-Head-Change                         Max.-Flux-Residual
  Residual-Control   Outer-Iter.   Inner-Iter.     Column Row Layer    Maximum-Head-Change  Column Row Layer    Maximum-Flux-Residual          L2-NORM 
          0                 1           2             5    6     1       0.1193625540E-01       5    6    1         0.6430854018E+00      0.1729131341E+01
          0                 2           2             5    6     1      -0.1161071228E-02       5    6    1        -0.6430847042E-01      0.1676478159E+00
          0                 3           1             5    6     1       0.7906448964E-04       5    6    1         0.4501595539E-02      0.1176824457E-01

    ------------------------------------------------
       NWT REQUIRED            3 OUTER ITERATIONS 
       AND A TOTAL OF          5 INNER ITERATIONS.
    ------------------------------------------------

 NO OUTPUT CONTROL FOR STRESS PERIOD    8   TIME STEP   30



 STREAM LISTING     PERIOD      8   STEP       30

 LAYER ROW COL. STREAM  RCH.  FLOW INTO     FLOW TO   FLOW OUT OF   OVRLND.     DIRECT     STREAM       STREAM     STREAM     STREAM   STREAMBED  STREAMBED
                SEG.NO.  NO.  STRM. RCH.    AQUIFER    STRM. RCH.    RUNOFF     PRECIP       ET          HEAD       DEPTH      WIDTH   CONDCTNC.   GRADIENT

   1    1    1     1     1    7.5000E+01  4.2232E-01   7.4578E+01  0.000E+00  0.000E+00  0.000E+00  1.09475E+03  1.698E+00  1.998E+01  8.990E-02  1.566E+00
   1    2    2     1     2    7.4578E+01  6.5422E-01   7.3923E+01  0.000E+00  0.000E+00  0.000E+00  1.08975E+03  1.692E+00  1.992E+01  1.394E-01  1.564E+00
   1    3    3     1     3    7.3923E+01  5.5813E-01   7.3365E+01  0.000E+00  0.000E+00  0.000E+00  1.08410E+03  1.685E+00  1.985E+01  1.191E-01  1.562E+00
   1    3    4     1     4    7.3365E+01  5.1411E-01   7.2851E+01  0.000E+00  0.000E+00  0.000E+00  1.07909E+03  1.679E+00  1.980E+01  1.099E-01  1.560E+00
   1    4    5     2     1    7.0851E+01  4.0967E-01   7.0442E+01  0.000E+00  0.000E+00  0.000E+00  1.07419E+03  2.252E+00  1.200E+01  7.800E-02  1.751E+00
   1    5    6     2     2    7.0442E+01  3.1471E-01   7.0127E+01  0.000E+00  0.000E+00  0.000E+00  1.06875E+03  2.245E+00  1.200E+01  6.000E-02  1.748E+00
   1    6    6     2     3    7.0127E+01  3.1435E-01   6.9812E+01  0.000E+00  0.000E+00  0.000E+00  1.06403E+03  2.239E+00  1.200E+01  6.000E-02  1.746E+00
   1    7    6     2     4    6.9812E+01  3.1399E-01   6.9498E+01  0.000E+00  0.000E+00  0.000E+00  1.05931E+03  2.233E+00  1.200E+01  6.000E-02  1.744E+00
   1    8    6     2     5    6.9498E+01  3.1363E-01   6.9185E+01  0.000E+00  0.000E+00  0.000E+00  1.05459E+03  2.227E+00  1.200E+01  6.000E-02  1.742E+00
   1    3    5     3     1    2.0000E+00  2.8252E-01   1.7175E+00  0.000E+00  0.000E+00  0.000E+00  1.07555E+03  1.909E+00  9.636E+00  7.227E-02  1.955E+00
   1    3    6     3     2    1.7175E+00  2.4905E-01   1.4684E+00  0.000E+00  0.000E+00  0.000E+00  1.07264E+03  1.727E+00  8.909E+00  6.682E-02  1.864E+00
   1    3    7     3     3    1.4684E+00  1.9718E-01   1.2712E+00  0.000E+00  0.000E+00  0.000E+00  1.06987E+03  1.555E+00  8.218E+00  5.547E-02  1.777E+00
   1    4    8     3     4    1.2712E+00  2.2567E-01   1.0456E+00  0.000E+00  0.000E+00  0.000E+00  1.06682E+03  1.364E+00  7.455E+00  6.709E-02  1.682E+00
   1    5    8     3     5    1.0456E+00  1.5790E-01   8.8768E-01  0.000E+00  0.000E+00  0.000E+00  1.06362E+03  1.164E+00  6.655E+00  4.991E-02  1.582E+00
   1    6    8     3     6    8.8768E-01  5.5980E-02   8.3170E-01  0.000E+00  0.000E+00  0.000E+00  1.06158E+03  1.036E+00  6.145E+00  1.844E-02  1.518E+00
   1    5   10     4     1    1.0000E+01  9.0919E-02   9.9091E+00  0.000E+00  0.000E+00  0.000E+00  1.07836E+03  6.368E-01  1.000E+01  2.500E-02  1.212E+00
   1    5    9     4     2    9.9091E+00  1.8158E-01   9.7275E+00  0.000E+00  0.000E+00  0.000E+00  1.07154E+03  6.315E-01  1.000E+01  5.000E-02  1.211E+00
   1    6    8     4     3    9.7275E+00  1.2689E-01   9.6006E+00  0.000E+00  0.000E+00  0.000E+00  1.06381E+03  6.256E-01  1.000E+01  3.500E-02  1.209E+00
   1    6    8     5     1    1.0432E+01  2.2686E-01   1.0205E+01  0.000E+00  0.000E+00  0.000E+00  1.05868E+03  6.790E-01  1.542E+01  6.166E-02  1.226E+00
   1    7    7     5     2    1.0205E+01  2.7894E-01   9.9265E+00  0.000E+00  0.000E+00  0.000E+00  1.05417E+03  6.732E-01  1.519E+01  7.594E-02  1.224E+00
   1    8    7     5     3    9.9265E+00  1.9221E-01   9.7343E+00  0.000E+00  0.000E+00  0.000E+00  1.04992E+03  6.676E-01  1.497E+01  5.241E-02  1.223E+00
   1    8    6     5     4    9.7343E+00  1.3577E-01   9.5985E+00  0.000E+00  0.000E+00  0.000E+00  1.04691E+03  6.637E-01  1.482E+01  3.706E-02  1.221E+00
   1    9    6     6     1    7.8783E+01  3.2569E-01   7.8458E+01  0.000E+00  0.000E+00  0.000E+00  1.04516E+03  2.428E+00  1.200E+01  6.000E-02  1.809E+00
   1   10    7     6     2    7.8458E+01  3.2533E-01   7.8132E+01  0.000E+00  0.000E+00  0.000E+00  1.04060E+03  2.422E+00  1.200E+01  6.000E-02  1.807E+00
   1   11    7     6     3    7.8132E+01  3.2497E-01   7.7807E+01  0.000E+00  0.000E+00  0.000E+00  1.03605E+03  2.416E+00  1.200E+01  6.000E-02  1.805E+00
   1   12    7     6     4    7.7807E+01  3.2461E-01   7.7483E+01  0.000E+00  0.000E+00  0.000E+00  1.03150E+03  2.410E+00  1.200E+01  6.000E-02  1.803E+00
   1   13    7     6     5    7.7483E+01  2.9623E-02   7.7453E+01  0.000E+00  0.000E+00  0.000E+00  1.02832E+03  2.407E+00  1.200E+01  2.400E-02  4.114E-01
   1   14    9     7     1    1.5000E+02  1.3343E+00   1.4867E+02  0.000E+00  0.000E+00  0.000E+00  1.03987E+03  2.288E+00  5.529E+01  5.593E-01  7.952E-01
   1   13    8     7     2    1.4867E+02  1.8197E+00   1.4685E+02  0.000E+00  0.000E+00  0.000E+00  1.03478E+03  2.279E+00  5.526E+01  6.148E-01  9.866E-01
   1   13    7     7     3    1.4685E+02  1.4566E+00   1.4539E+02  0.000E+00  0.000E+00  0.000E+00  1.02969E+03  2.271E+00  5.522E+01  5.585E-01  8.694E-01
   1   13    6     8     1    2.2284E+02  1.1713E+00   2.2167E+02  0.000E+00  0.000E+00  0.000E+00  1.02514E+03  3.264E+00  4.733E+01  4.823E-01  8.094E-01
   1   13    5     8     2    2.2167E+02  4.6744E-01   2.2120E+02  0.000E+00  0.000E+00  0.000E+00  1.01888E+03  3.260E+00  4.727E+01  4.817E-01  3.235E-01
   1   13    4     8     3    2.2120E+02 -8.4717E-01   2.2205E+02  0.000E+00  0.000E+00  0.000E+00  1.01264E+03  3.261E+00  4.728E+01  4.818E+00 -5.861E-02
   1   13    3     8     4    2.2205E+02 -2.1549E+00   2.2421E+02  0.000E+00  0.000E+00  0.000E+00  1.00639E+03  3.269E+00  4.740E+01  4.831E+00 -1.487E-01
   1   13    2     8     5    2.2421E+02 -1.6036E+00   2.2581E+02  0.000E+00  0.000E+00  0.000E+00  1.00015E+03  3.279E+00  4.755E+01  4.846E+00 -1.103E-01
   1   13    1     8     6    2.2581E+02 -6.8999E-01   2.2650E+02  0.000E+00  0.000E+00  0.000E+00  9.95161E+02  3.286E+00  4.764E+01  2.913E+00 -7.896E-02
   1    8    6     9     1    0.0000E+00  0.0000E+00   0.0000E+00  0.000E+00  0.000E+00  0.000E+00  1.07875E+03  0.000E+00  4.000E+00  0.000E+00  1.000E+00
   1    8    5     9     2    0.0000E+00  0.0000E+00   0.0000E+00  0.000E+00  0.000E+00  0.000E+00  1.07825E+03  0.000E+00  4.000E+00  0.000E+00  1.000E+00





UNSATURATED ZONE PACKAGE VOLUMETRIC BUDGET FOR  TIME STEP    30 STRESS PERIOD    8
  ------------------------------------------------------------------------------



     CUMULATIVE VOLUMES      L**3       RATES FOR THIS TIME STEP      L**3/T
     ------------------                 ------------------------

           IN:                                      IN:
           ---                                      ---
        INFILTRATION =   120770965.3643          INFILTRATION =           0.8475

          OUT:                                     OUT:
          ----                                     ----
              UZF ET =    59783491.6128                UZF ET =          12.6049
        UZF RECHARGE =     7493850.2938          UZF RECHARGE =           0.2077

            IN - OUT =    53493623.4577              IN - OUT =         -11.9651

          STORAGE:                                 STORAGE:
          --------                                 --------
      STORAGE CHANGE =    53539628.7492        STORAGE CHANGE =         -11.9651

 PERCENT DISCREPANCY IS DIFFERENCE BETWEEN IN-OUT MINUS CHANGE IN STORAGE
 DIVIDED BY THE AVERAGE OF IN AND OUT TIMES 100

 PERCENT DISCREPANCY =          -0.01     PERCENT DISCREPANCY =           0.00






1
  VOLUMETRIC BUDGET FOR ENTIRE MODEL AT END OF TIME STEP   30, STRESS PERIOD   8
  ------------------------------------------------------------------------------

     CUMULATIVE VOLUMES      L**3       RATES FOR THIS TIME STEP      L**3/T
     ------------------                 ------------------------

           IN:                                      IN:
           ---                                      ---
               AWU WELLS =    59916420.0000                 AWU WELLS =           0.0000
      DIVERSION SEGMENTS =    45190036.0000        DIVERSION SEGMENTS =           0.0000
           GW IRRIGATION =           0.0000             GW IRRIGATION =           0.0000
           SW IRRIGATION =           0.0000             SW IRRIGATION =           0.0000
        SYSTEM LOSSES GW =           0.0000          SYSTEM LOSSES GW =           0.0000
        SYSTEM LOSSES SW =           0.0000          SYSTEM LOSSES SW =           0.0000

                TOTAL IN =   105106456.0000                  TOTAL IN =           0.0000

          OUT:                                     OUT:
          ----                                     ----
               AWU WELLS =           0.0000                 AWU WELLS =           0.0000
      DIVERSION SEGMENTS =           0.0000        DIVERSION SEGMENTS =           0.0000
           GW IRRIGATION =    59916420.0000             GW IRRIGATION =           0.0000
           SW IRRIGATION =    45190936.0000             SW IRRIGATION =           0.0000
        SYSTEM LOSSES GW =           0.0000          SYSTEM LOSSES GW =           0.0000
        SYSTEM LOSSES SW =           0.0000          SYSTEM LOSSES SW =           0.0000

               TOTAL OUT =   105107360.0000                 TOTAL OUT =           0.0000

                IN - OUT =        -904.0000                  IN - OUT =           0.0000

     PERCENT DISCREPANCY =          -0.00         PERCENT DISCREPANCY =           0.00



1
  VOLUMETRIC BUDGET FOR ENTIRE MODEL AT END OF TIME STEP   30, STRESS PERIOD   8
  ------------------------------------------------------------------------------

     CUMULATIVE VOLUMES      L**3       RATES FOR THIS TIME STEP      L**3/T
     ------------------                 ------------------------

           IN:                                      IN:
           ---                                      ---
             STORAGE     =   102240392.0000               STORAGE     =           4.1479
       CONSTANT HEAD     =           0.0000         CONSTANT HEAD     =           0.0000
     HEAD DEP BOUNDS     =     5281112.0000       HEAD DEP BOUNDS     =           0.2857
      STREAM LEAKAGE     =   239231072.0000        STREAM LEAKAGE     =          13.7962
        UZF RECHARGE     =     7493846.0000          UZF RECHARGE     =           0.2077
               GW ET     =           0.0000                 GW ET     =           0.0000
     SURFACE LEAKAGE     =           0.0000       SURFACE LEAKAGE     =           0.0000
           AWU WELLS     =           0.0000             AWU WELLS     =           0.0000

                TOTAL IN =   354246432.0000                  TOTAL IN =          18.4375

          OUT:                                     OUT:
          ----                                     ----
             STORAGE     =    80449672.0000               STORAGE     =           4.9727
       CONSTANT HEAD     =           0.0000         CONSTANT HEAD     =           0.0000
     HEAD DEP BOUNDS     =     5391862.0000       HEAD DEP BOUNDS     =           0.2811
      STREAM LEAKAGE     =   174564224.0000        STREAM LEAKAGE     =           5.2957
        UZF RECHARGE     =           0.0000          UZF RECHARGE     =           0.0000
               GW ET     =    33931856.0000                 GW ET     =           7.8876
     SURFACE LEAKAGE     =           0.0000       SURFACE LEAKAGE     =           0.0000
           AWU WELLS     =    59916420.0000             AWU WELLS     =           0.0000

               TOTAL OUT =   354254016.0000                 TOTAL OUT =          18.4372

                IN - OUT =       -7584.0000                  IN - OUT =       3.3760E-04

     PERCENT DISCREPANCY =          -0.00         PERCENT DISCREPANCY =           0.00






         TIME SUMMARY AT END OF TIME STEP   30 IN STRESS PERIOD    8
                    SECONDS     MINUTES      HOURS       DAYS        YEARS
                    -----------------------------------------------------------
   TIME STEP LENGTH  87600.      1460.0      24.333      1.0139     2.77588E-03
 STRESS PERIOD TIME 2.62800E+06  43800.      730.00      30.417     8.32763E-02
         TOTAL TIME 1.84824E+07 3.08040E+05  5134.0      213.92     0.58567    
1
1
                            STRESS PERIOD NO.    9, LENGTH =   2628000.    
                            -----------------------------------------------

                              NUMBER OF TIME STEPS =    30

                               MULTIPLIER FOR DELT =     1.000

                            INITIAL TIME STEP SIZE =   87600.00    

 REUSING NON-PARAMETER GHB CELLS FROM LAST STRESS PERIOD

      2 GHB CELLS

 REUSING STREAM SEGMENT DATA FROM LAST STRESS PERIOD



            AREAL INFILTRATION RATE
 READING ON UNIT   19 WITH FORMAT: (10F4.0)            

            1           2           3           4           5           6           7           8           9          10
 ........................................................................................................................
   1   1.0000E-10  2.0000E-10   0.000       0.000       0.000       0.000       0.000       0.000       0.000       0.000    
   2   2.0000E-10  1.0000E-10  2.0000E-10   0.000       0.000      8.0000E-10  8.0000E-10  5.0000E-10   0.000       0.000    
   3    0.000      5.0000E-10  1.0000E-10  1.0000E-10  8.0000E-10  8.0000E-10  5.0000E-10  5.0000E-10   0.000       0.000    
   4   8.0000E-10  5.0000E-10  1.0000E-10  1.0000E-10  1.0000E-10  1.0000E-10  1.0000E-10  1.0000E-10  2.0000E-10   0.000    
   5   8.0000E-10  5.0000E-10  1.0000E-10  1.0000E-10  1.0000E-10  1.0000E-10  1.0000E-10  1.0000E-10  1.0000E-10  1.0000E-10
   6   8.0000E-10  5.0000E-10  5.0000E-10  2.0000E-10  2.0000E-10  1.0000E-10  1.0000E-10  1.0000E-10  1.0000E-10  5.0000E-10
   7   8.0000E-10  5.0000E-10  5.0000E-10  2.0000E-10  2.0000E-10  1.0000E-10  1.0000E-10  2.0000E-10  2.0000E-10   0.000    
   8    0.000      5.0000E-10  5.0000E-10  2.0000E-10  2.0000E-10  1.0000E-10  1.0000E-10  2.0000E-10  5.0000E-10   0.000    
   9    0.000      5.0000E-10  5.0000E-10  2.0000E-10  2.0000E-10  1.0000E-10  1.0000E-10  2.0000E-10  5.0000E-10   0.000    
  10    0.000      5.0000E-10  5.0000E-10  2.0000E-10  2.0000E-10  1.0000E-10  1.0000E-10  2.0000E-10  5.0000E-10  8.0000E-10
  11    0.000      1.0000E-10  1.0000E-10  1.0000E-10  1.0000E-10  1.0000E-10  1.0000E-10  2.0000E-10  5.0000E-10   0.000    
  12   1.0000E-10  1.0000E-10  1.0000E-10  1.0000E-10  1.0000E-10  1.0000E-10  1.0000E-10  1.0000E-10  2.0000E-10   0.000    
  13   1.0000E-10  1.0000E-10  2.0000E-10  2.0000E-10  2.0000E-10  2.0000E-10  2.0000E-10  1.0000E-10  1.0000E-10   0.000    
  14    0.000      2.0000E-10  5.0000E-10  5.0000E-10  5.0000E-10  5.0000E-10  5.0000E-10  2.0000E-10  1.0000E-10   0.000    
  15    0.000       0.000      8.0000E-10  8.0000E-10  8.0000E-10  8.0000E-10   0.000       0.000       0.000       0.000    

                  ET RATE =  6.500000E-08

 USING ET EXTINCTION DEPTH FROM PREVIOUS STRESS PERIOD. CURRENT PERIOD IS:       9

 USING EXTINCTION WATER CONTENT FROM PREVIOUS STRESS PERIOD. CURRENT PERIOD IS:       9

 PROCESSING AWU STRESS PERIOD DATA

 READING AWU STRESS PERIOD DATA

 READING IRRIGATION STREAM

 READING IRRIGATION WELL

 READING SUPPLEMENTAL WEL

 END PROCESSING AWU STRESS PERIOD DATA OPTIONS
 
 SOLVING FOR HEAD 
                                                   Max.-Head-Change                         Max.-Flux-Residual
  Residual-Control   Outer-Iter.   Inner-Iter.     Column Row Layer    Maximum-Head-Change  Column Row Layer    Maximum-Flux-Residual          L2-NORM 
          0                 1           2             5    7     1       0.1153697697E-01       5    6    1         0.6208274710E+00      0.1639196993E+01
          0                 2           2             5    7     1      -0.1122232835E-02       5    6    1        -0.6208267535E-01      0.1600671347E+00
          0                 3           1             5    7     1       0.7641993422E-04       5    6    1         0.4345789830E-02      0.1124011006E-01

    ------------------------------------------------
       NWT REQUIRED            3 OUTER ITERATIONS 
       AND A TOTAL OF          5 INNER ITERATIONS.
    ------------------------------------------------

 NO OUTPUT CONTROL FOR STRESS PERIOD    9   TIME STEP    1
 
 SOLVING FOR HEAD 
                                                   Max.-Head-Change                         Max.-Flux-Residual
  Residual-Control   Outer-Iter.   Inner-Iter.     Column Row Layer    Maximum-Head-Change  Column Row Layer    Maximum-Flux-Residual          L2-NORM 
          0                 1           2             5    7     1       0.1131322719E-01       5    7    1         0.6000597660E+00      0.1599762884E+01
          0                 2           2             5    7     1      -0.1100468214E-02       5    7    1        -0.6000595286E-01      0.1563719928E+00
          0                 3           1             5    7     1       0.7493784264E-04       5    7    1         0.4200418749E-02      0.1098025808E-01

    ------------------------------------------------
       NWT REQUIRED            3 OUTER ITERATIONS 
       AND A TOTAL OF          5 INNER ITERATIONS.
    ------------------------------------------------

 NO OUTPUT CONTROL FOR STRESS PERIOD    9   TIME STEP    2
 
 SOLVING FOR HEAD 
                                                   Max.-Head-Change                         Max.-Flux-Residual
  Residual-Control   Outer-Iter.   Inner-Iter.     Column Row Layer    Maximum-Head-Change  Column Row Layer    Maximum-Flux-Residual          L2-NORM 
          0                 1           2             5    7     1       0.1109369826E-01       5    7    1         0.5884166269E+00      0.1561325774E+01
          0                 2           2             5    7     1      -0.1079114179E-02       5    7    1        -0.5884164909E-01      0.1524503744E+00
          0                 3           1             5    7     1       0.7348371165E-04       5    7    1         0.4118917328E-02      0.1070622820E-01

    ------------------------------------------------
       NWT REQUIRED            3 OUTER ITERATIONS 
       AND A TOTAL OF          5 INNER ITERATIONS.
    ------------------------------------------------

 NO OUTPUT CONTROL FOR STRESS PERIOD    9   TIME STEP    3
 
 SOLVING FOR HEAD 
                                                   Max.-Head-Change                         Max.-Flux-Residual
  Residual-Control   Outer-Iter.   Inner-Iter.     Column Row Layer    Maximum-Head-Change  Column Row Layer    Maximum-Flux-Residual          L2-NORM 
          0                 1           2             4    7     1       0.1091941069E-01       5    7    1         0.5770090774E+00      0.1524883202E+01
          0                 2           2             4    7     1      -0.1062161222E-02       5    7    1        -0.5770090297E-01      0.1487287284E+00
          0                 3           1             4    7     1       0.7232923860E-04       5    7    1         0.4039065010E-02      0.1044651732E-01

    ------------------------------------------------
       NWT REQUIRED            3 OUTER ITERATIONS 
       AND A TOTAL OF          5 INNER ITERATIONS.
    ------------------------------------------------

 NO OUTPUT CONTROL FOR STRESS PERIOD    9   TIME STEP    4
 
 SOLVING FOR HEAD 
                                                   Max.-Head-Change                         Max.-Flux-Residual
  Residual-Control   Outer-Iter.   Inner-Iter.     Column Row Layer    Maximum-Head-Change  Column Row Layer    Maximum-Flux-Residual          L2-NORM 
          0                 1           2             4    7     1       0.1084118512E-01       4    7    1         0.5678073441E+00      0.1490321789E+01
          0                 2           2             4    7     1      -0.1054552157E-02       4    7    1        -0.5678075823E-01      0.1451962797E+00
          0                 3           1             4    7     1       0.7181108839E-04       4    7    1         0.3974654590E-02      0.1019976287E-01

    ------------------------------------------------
       NWT REQUIRED            3 OUTER ITERATIONS 
       AND A TOTAL OF          5 INNER ITERATIONS.
    ------------------------------------------------

 NO OUTPUT CONTROL FOR STRESS PERIOD    9   TIME STEP    5
 
 SOLVING FOR HEAD 
                                                   Max.-Head-Change                         Max.-Flux-Residual
  Residual-Control   Outer-Iter.   Inner-Iter.     Column Row Layer    Maximum-Head-Change  Column Row Layer    Maximum-Flux-Residual          L2-NORM 
          0                 1           2             4    7     1      -0.7588825032E-01       5    8    1        -0.4012713234E+01      0.1004686928E+02
          0                 2           2             4    7     1       0.7380971111E-02       5    8    1         0.4012128001E+00      0.1007316945E+01
          0                 3           2             4    7     1      -0.5034460997E-03       5    8    1        -0.2813080507E-01      0.7079259838E-01
          0                 4           1             4    7     1       0.1922607325E-04       5    8    1         0.1104774600E-02      0.2827230640E-02

    ------------------------------------------------
       NWT REQUIRED            4 OUTER ITERATIONS 
       AND A TOTAL OF          7 INNER ITERATIONS.
    ------------------------------------------------

 NO OUTPUT CONTROL FOR STRESS PERIOD    9   TIME STEP    6
 
 SOLVING FOR HEAD 
                                                   Max.-Head-Change                         Max.-Flux-Residual
  Residual-Control   Outer-Iter.   Inner-Iter.     Column Row Layer    Maximum-Head-Change  Column Row Layer    Maximum-Flux-Residual          L2-NORM 
          0                 1           2             4   13     1      -0.2072714653E-01       4   13    1        -0.1188515390E+01      0.2706303595E+01
          0                 2           2             4   13     1       0.2383806394E-01       4   13    1         0.1419729682E+01      0.2479836280E+01
          0                 3           2             7   13     1      -0.4120403122E-02       7   13    1        -0.2362766091E+00      0.2826893175E+00
          0                 4           2             7   13     1       0.1638510791E-03       7   13    1         0.9659394708E-02      0.1126039336E-01
          0                 5           1             7   13     1      -0.2021068673E-05       7   13    1        -0.1223390607E-03      0.1398908650E-03

    ------------------------------------------------
       NWT REQUIRED            5 OUTER ITERATIONS 
       AND A TOTAL OF          9 INNER ITERATIONS.
    ------------------------------------------------

 NO OUTPUT CONTROL FOR STRESS PERIOD    9   TIME STEP    7
 
 SOLVING FOR HEAD 
                                                   Max.-Head-Change                         Max.-Flux-Residual
  Residual-Control   Outer-Iter.   Inner-Iter.     Column Row Layer    Maximum-Head-Change  Column Row Layer    Maximum-Flux-Residual          L2-NORM 
          0                 1           2             4   13     1      -0.2099844655E-01       4   13    1        -0.1204219379E+01      0.2689351762E+01
          0                 2           2             4   13     1       0.2389418580E-01       4   13    1         0.1423084231E+01      0.2469939627E+01
          0                 3           2             7   13     1      -0.3982848687E-02       7   13    1        -0.2283797274E+00      0.2763407312E+00
          0                 4           2             7   13     1       0.1583760246E-03       7   13    1         0.9336213524E-02      0.1099397305E-01
          0                 5           1             7   13     1      -0.1954738192E-05       7   13    1        -0.1183392590E-03      0.1361980584E-03

    ------------------------------------------------
       NWT REQUIRED            5 OUTER ITERATIONS 
       AND A TOTAL OF          9 INNER ITERATIONS.
    ------------------------------------------------

 NO OUTPUT CONTROL FOR STRESS PERIOD    9   TIME STEP    8
 
 SOLVING FOR HEAD 
                                                   Max.-Head-Change                         Max.-Flux-Residual
  Residual-Control   Outer-Iter.   Inner-Iter.     Column Row Layer    Maximum-Head-Change  Column Row Layer    Maximum-Flux-Residual          L2-NORM 
          0                 1           2             4   13     1      -0.2120224685E-01       4   13    1        -0.1216049779E+01      0.2675500466E+01
          0                 2           2             4   13     1       0.2390348729E-01       4   13    1         0.1423648119E+01      0.2470119264E+01
          0                 3           2             7   13     1      -0.3986298529E-02       7   13    1        -0.2285778966E+00      0.2765074769E+00
          0                 4           2             7   13     1       0.1585145199E-03       7   13    1         0.9344393070E-02      0.1100170279E-01
          0                 5           1             7   13     1      -0.1956248376E-05       7   13    1        -0.1184301464E-03      0.1363744598E-03

    ------------------------------------------------
       NWT REQUIRED            5 OUTER ITERATIONS 
       AND A TOTAL OF          9 INNER ITERATIONS.
    ------------------------------------------------

 NO OUTPUT CONTROL FOR STRESS PERIOD    9   TIME STEP    9
 
 SOLVING FOR HEAD 
                                                   Max.-Head-Change                         Max.-Flux-Residual
  Residual-Control   Outer-Iter.   Inner-Iter.     Column Row Layer    Maximum-Head-Change  Column Row Layer    Maximum-Flux-Residual          L2-NORM 
          0                 1           2             4    7     1      -0.1804378399E+00       5    8    1        -0.9434875860E+01      0.2320479544E+02
          0                 2           2             4    7     1       0.1755148392E-01       5    8    1         0.9434182231E+00      0.2322003253E+01
          0                 3           2             4    7     1      -0.1195192919E-02       5    8    1        -0.6603996033E-01      0.1626445130E+00
          0                 4           1             4    7     1       0.4755783525E-04       5    8    1         0.2701035101E-02      0.6672962551E-02

    ------------------------------------------------
       NWT REQUIRED            4 OUTER ITERATIONS 
       AND A TOTAL OF          7 INNER ITERATIONS.
    ------------------------------------------------

 NO OUTPUT CONTROL FOR STRESS PERIOD    9   TIME STEP   10
 
 SOLVING FOR HEAD 
                                                   Max.-Head-Change                         Max.-Flux-Residual
  Residual-Control   Outer-Iter.   Inner-Iter.     Column Row Layer    Maximum-Head-Change  Column Row Layer    Maximum-Flux-Residual          L2-NORM 
          0                 1           2             4    7     1      -0.1794958269E+00       4    7    1        -0.9382597180E+01      0.2277422071E+02
          0                 2           2             4    7     1       0.1745982123E-01       4    7    1         0.9382454434E+00      0.2276632036E+01
          0                 3           2             4    7     1      -0.1188951329E-02       4    7    1        -0.6567734450E-01      0.1593247395E+00
          0                 4           1             4    7     1       0.4730947531E-04       4    7    1         0.2686206516E-02      0.6514890758E-02

    ------------------------------------------------
       NWT REQUIRED            4 OUTER ITERATIONS 
       AND A TOTAL OF          7 INNER ITERATIONS.
    ------------------------------------------------

 NO OUTPUT CONTROL FOR STRESS PERIOD    9   TIME STEP   11
 
 SOLVING FOR HEAD 
                                                   Max.-Head-Change                         Max.-Flux-Residual
  Residual-Control   Outer-Iter.   Inner-Iter.     Column Row Layer    Maximum-Head-Change  Column Row Layer    Maximum-Flux-Residual          L2-NORM 
          0                 1           2             4    7     1      -0.1784810609E+00       4    7    1        -0.9333607753E+01      0.2235152667E+02
          0                 2           2             4    7     1       0.1736108494E-01       4    7    1         0.9333446083E+00      0.2234501424E+01
          0                 3           2             4    7     1      -0.1182228019E-02       4    7    1        -0.6533430380E-01      0.1563873967E+00
          0                 4           1             4    7     1       0.4704194755E-04       4    7    1         0.2672176037E-02      0.6395481754E-02

    ------------------------------------------------
       NWT REQUIRED            4 OUTER ITERATIONS 
       AND A TOTAL OF          7 INNER ITERATIONS.
    ------------------------------------------------

 NO OUTPUT CONTROL FOR STRESS PERIOD    9   TIME STEP   12
 
 SOLVING FOR HEAD 
                                                   Max.-Head-Change                         Max.-Flux-Residual
  Residual-Control   Outer-Iter.   Inner-Iter.     Column Row Layer    Maximum-Head-Change  Column Row Layer    Maximum-Flux-Residual          L2-NORM 
          0                 1           2             5    8     1       0.2442240310E-01       5    8    1         0.1332190097E+01      0.3087901223E+01
          0                 2           2             7   13     1      -0.4114636692E-02       7   13    1        -0.2299100723E+00      0.3817830426E+00
          0                 3           2             7   13     1       0.2800949004E-03       7   13    1         0.1608883388E-01      0.2670961476E-01
          0                 4           1             7   13     1      -0.1114259118E-04       7   13    1        -0.6577594572E-03      0.1097354911E-02

    ------------------------------------------------
       NWT REQUIRED            4 OUTER ITERATIONS 
       AND A TOTAL OF          7 INNER ITERATIONS.
    ------------------------------------------------

 NO OUTPUT CONTROL FOR STRESS PERIOD    9   TIME STEP   13
 
 SOLVING FOR HEAD 
                                                   Max.-Head-Change                         Max.-Flux-Residual
  Residual-Control   Outer-Iter.   Inner-Iter.     Column Row Layer    Maximum-Head-Change  Column Row Layer    Maximum-Flux-Residual          L2-NORM 
          0                 1           2             5    8     1       0.2330729603E-01       5    8    1         0.1270117798E+01      0.2967517728E+01
          0                 2           2             5    8     1      -0.2267185949E-02       5    8    1        -0.1270132894E+00      0.2946390207E+00
          0                 3           2             5    8     1       0.1543867470E-03       5    8    1         0.8890919818E-02      0.2061784384E-01
          0                 4           1             5    8     1      -0.6143194480E-05       5    8    1        -0.3636392062E-03      0.8502723043E-03

    ------------------------------------------------
       NWT REQUIRED            4 OUTER ITERATIONS 
       AND A TOTAL OF          7 INNER ITERATIONS.
    ------------------------------------------------

 NO OUTPUT CONTROL FOR STRESS PERIOD    9   TIME STEP   14
 
 SOLVING FOR HEAD 
                                                   Max.-Head-Change                         Max.-Flux-Residual
  Residual-Control   Outer-Iter.   Inner-Iter.     Column Row Layer    Maximum-Head-Change  Column Row Layer    Maximum-Flux-Residual          L2-NORM 
          0                 1           2             5    8     1       0.2226490760E-01       5    8    1         0.1212137906E+01      0.2858320307E+01
          0                 2           2             5    8     1      -0.2165787692E-02       5    8    1        -0.1212151398E+00      0.2836938243E+00
          0                 3           2             5    8     1       0.1474819235E-03       5    8    1         0.8485050671E-02      0.1985569059E-01
          0                 4           1             5    8     1      -0.5868444534E-05       5    8    1        -0.3470391073E-03      0.8194306909E-03

    ------------------------------------------------
       NWT REQUIRED            4 OUTER ITERATIONS 
       AND A TOTAL OF          7 INNER ITERATIONS.
    ------------------------------------------------

 NO OUTPUT CONTROL FOR STRESS PERIOD    9   TIME STEP   15
 
 SOLVING FOR HEAD 
                                                   Max.-Head-Change                         Max.-Flux-Residual
  Residual-Control   Outer-Iter.   Inner-Iter.     Column Row Layer    Maximum-Head-Change  Column Row Layer    Maximum-Flux-Residual          L2-NORM 
          0                 1           2             5    6     1       0.2131366065E-01       5    8    1         0.1157923353E+01      0.2756668772E+01
          0                 2           2             5    6     1      -0.2073233310E-02       5    8    1        -0.1157935425E+00      0.2734987430E+00
          0                 3           2             5    6     1       0.1411795550E-03       5    8    1         0.8105540070E-02      0.1914579424E-01
          0                 4           1             5    6     1      -0.5617654483E-05       5    8    1        -0.3315171093E-03      0.7909068360E-03

    ------------------------------------------------
       NWT REQUIRED            4 OUTER ITERATIONS 
       AND A TOTAL OF          7 INNER ITERATIONS.
    ------------------------------------------------

 NO OUTPUT CONTROL FOR STRESS PERIOD    9   TIME STEP   16
 
 SOLVING FOR HEAD 
                                                   Max.-Head-Change                         Max.-Flux-Residual
  Residual-Control   Outer-Iter.   Inner-Iter.     Column Row Layer    Maximum-Head-Change  Column Row Layer    Maximum-Flux-Residual          L2-NORM 
          0                 1           2             5    6     1       0.2043454032E-01       5    6    1         0.1108575983E+01      0.2661876462E+01
          0                 2           2             5    6     1      -0.1987719264E-02       5    6    1        -0.1108573071E+00      0.2639836497E+00
          0                 3           2             5    6     1       0.1353563616E-03       5    6    1         0.7760017619E-02      0.1848277572E-01
          0                 4           1             5    6     1      -0.5385944070E-05       5    6    1        -0.3173851542E-03      0.7642127867E-03

    ------------------------------------------------
       NWT REQUIRED            4 OUTER ITERATIONS 
       AND A TOTAL OF          7 INNER ITERATIONS.
    ------------------------------------------------

 NO OUTPUT CONTROL FOR STRESS PERIOD    9   TIME STEP   17
 
 SOLVING FOR HEAD 
                                                   Max.-Head-Change                         Max.-Flux-Residual
  Residual-Control   Outer-Iter.   Inner-Iter.     Column Row Layer    Maximum-Head-Change  Column Row Layer    Maximum-Flux-Residual          L2-NORM 
          0                 1           2             5    6     1       0.1960806450E-01       5    6    1         0.1062843530E+01      0.2573333936E+01
          0                 2           2             5    6     1      -0.1907326059E-02       5    6    1        -0.1062840860E+00      0.2550894179E+00
          0                 3           2             5    6     1       0.1298818783E-03       5    6    1         0.7439891770E-02      0.1786274548E-01
          0                 4           1             5    6     1      -0.5168109756E-05       5    6    1        -0.3042919823E-03      0.7391609882E-03

    ------------------------------------------------
       NWT REQUIRED            4 OUTER ITERATIONS 
       AND A TOTAL OF          7 INNER ITERATIONS.
    ------------------------------------------------

 NO OUTPUT CONTROL FOR STRESS PERIOD    9   TIME STEP   18
 
 SOLVING FOR HEAD 
                                                   Max.-Head-Change                         Max.-Flux-Residual
  Residual-Control   Outer-Iter.   Inner-Iter.     Column Row Layer    Maximum-Head-Change  Column Row Layer    Maximum-Flux-Residual          L2-NORM 
          0                 1           2             4    7     1      -0.1769743136E+00       4    7    1        -0.9252026618E+01      0.2228639429E+02
          0                 2           2             4    7     1       0.1721454030E-01       4    7    1         0.9251878973E+00      0.2228325509E+01
          0                 3           2             4    7     1      -0.1172248670E-02       4    7    1        -0.6476332051E-01      0.1559854900E+00
          0                 4           1             4    7     1       0.4664486048E-04       4    7    1         0.2648822850E-02      0.6380864802E-02

    ------------------------------------------------
       NWT REQUIRED            4 OUTER ITERATIONS 
       AND A TOTAL OF          7 INNER ITERATIONS.
    ------------------------------------------------

 NO OUTPUT CONTROL FOR STRESS PERIOD    9   TIME STEP   19
 
 SOLVING FOR HEAD 
                                                   Max.-Head-Change                         Max.-Flux-Residual
  Residual-Control   Outer-Iter.   Inner-Iter.     Column Row Layer    Maximum-Head-Change  Column Row Layer    Maximum-Flux-Residual          L2-NORM 
          0                 1           2             5    6     1       0.2323823486E-01       5    8    1         0.1263166176E+01      0.3558311143E+01
          0                 2           2             4   13     1       0.2390580645E-01       4   13    1         0.1423797322E+01      0.2481529003E+01
          0                 3           2             7   13     1      -0.4043009823E-02       7   13    1        -0.2318330511E+00      0.2795589058E+00
          0                 4           2             7   13     1       0.1607906361E-03       7   13    1         0.9477424085E-02      0.1112705459E-01
          0                 5           1             7   13     1      -0.1983172262E-05       7   13    1        -0.1201011828E-03      0.1376577554E-03

    ------------------------------------------------
       NWT REQUIRED            5 OUTER ITERATIONS 
       AND A TOTAL OF          9 INNER ITERATIONS.
    ------------------------------------------------

 NO OUTPUT CONTROL FOR STRESS PERIOD    9   TIME STEP   20
 
 SOLVING FOR HEAD 
                                                   Max.-Head-Change                         Max.-Flux-Residual
  Residual-Control   Outer-Iter.   Inner-Iter.     Column Row Layer    Maximum-Head-Change  Column Row Layer    Maximum-Flux-Residual          L2-NORM 
          0                 1           2             5    6     1       0.2227377060E-01       5    6    1         0.1208671182E+01      0.3492019530E+01
          0                 2           2             4   13     1       0.2391871143E-01       4   13    1         0.1424579877E+01      0.2481098038E+01
          0                 3           2             7   13     1      -0.4045646803E-02       7   13    1        -0.2319844812E+00      0.2796647235E+00
          0                 4           2             7   13     1       0.1608960400E-03       7   13    1         0.9483647312E-02      0.1113160833E-01
          0                 5           1             7   13     1      -0.1978031901E-05       7   13    1        -0.1197906299E-03      0.1375336371E-03

    ------------------------------------------------
       NWT REQUIRED            5 OUTER ITERATIONS 
       AND A TOTAL OF          9 INNER ITERATIONS.
    ------------------------------------------------

 NO OUTPUT CONTROL FOR STRESS PERIOD    9   TIME STEP   21
 
 SOLVING FOR HEAD 
                                                   Max.-Head-Change                         Max.-Flux-Residual
  Residual-Control   Outer-Iter.   Inner-Iter.     Column Row Layer    Maximum-Head-Change  Column Row Layer    Maximum-Flux-Residual          L2-NORM 
          0                 1           2             5    6     1       0.2136729804E-01       5    6    1         0.1158510386E+01      0.3430847155E+01
          0                 2           2             4   13     1       0.2393038828E-01       4   13    1         0.1425287663E+01      0.2480708704E+01
          0                 3           2             7   13     1      -0.4048266262E-02       7   13    1        -0.2321349186E+00      0.2797717090E+00
          0                 4           2             7   13     1       0.1609998883E-03       7   13    1         0.9489778756E-02      0.1113663111E-01
          0                 5           1             7   13     1      -0.1985950454E-05       7   13    1        -0.1202718013E-03      0.1384024626E-03

    ------------------------------------------------
       NWT REQUIRED            5 OUTER ITERATIONS 
       AND A TOTAL OF          9 INNER ITERATIONS.
    ------------------------------------------------

 NO OUTPUT CONTROL FOR STRESS PERIOD    9   TIME STEP   22
 
 SOLVING FOR HEAD 
                                                   Max.-Head-Change                         Max.-Flux-Residual
  Residual-Control   Outer-Iter.   Inner-Iter.     Column Row Layer    Maximum-Head-Change  Column Row Layer    Maximum-Flux-Residual          L2-NORM 
          0                 1           2             5    6     1       0.2051460783E-01       4   13    1        -0.1171265847E+01      0.3374287608E+01
          0                 2           2             4   13     1       0.1478853298E-01       4   13    1         0.8780850366E+00      0.1539862565E+01
          0                 3           2             7   13     1      -0.2073670623E-02       7   13    1        -0.1188689743E+00      0.1544355804E+00
          0                 4           1             7   13     1       0.8246746104E-04       7   13    1         0.4859251084E-02      0.6119475154E-02

    ------------------------------------------------
       NWT REQUIRED            4 OUTER ITERATIONS 
       AND A TOTAL OF          7 INNER ITERATIONS.
    ------------------------------------------------

 NO OUTPUT CONTROL FOR STRESS PERIOD    9   TIME STEP   23
 
 SOLVING FOR HEAD 
                                                   Max.-Head-Change                         Max.-Flux-Residual
  Residual-Control   Outer-Iter.   Inner-Iter.     Column Row Layer    Maximum-Head-Change  Column Row Layer    Maximum-Flux-Residual          L2-NORM 
          0                 1           2             4   13     1      -0.1977174126E-01       4   13    1        -0.1134280266E+01      0.3277959654E+01
          0                 2           2             4   13     1       0.2392740764E-01       4   13    1         0.1425105150E+01      0.2478636288E+01
          0                 3           2             7   13     1      -0.4054394850E-02       7   13    1        -0.2324871299E+00      0.2799573458E+00
          0                 4           2             7   13     1       0.1612474106E-03       7   13    1         0.9504195344E-02      0.1114374028E-01
          0                 5           1             7   13     1      -0.1988076719E-05       7   13    1        -0.1204292573E-03      0.1378281175E-03

    ------------------------------------------------
       NWT REQUIRED            5 OUTER ITERATIONS 
       AND A TOTAL OF          9 INNER ITERATIONS.
    ------------------------------------------------

 NO OUTPUT CONTROL FOR STRESS PERIOD    9   TIME STEP   24
 
 SOLVING FOR HEAD 
                                                   Max.-Head-Change                         Max.-Flux-Residual
  Residual-Control   Outer-Iter.   Inner-Iter.     Column Row Layer    Maximum-Head-Change  Column Row Layer    Maximum-Flux-Residual          L2-NORM 
          0                 1           2             4   13     1      -0.2009630554E-01       4   13    1        -0.1153079730E+01      0.3232220931E+01
          0                 2           2             4   13     1       0.2393906428E-01       4   13    1         0.1425811721E+01      0.2478491647E+01
          0                 3           2             7   13     1      -0.4056956130E-02       7   13    1        -0.2326342720E+00      0.2800710628E+00
          0                 4           2             7   13     1       0.1613520300E-03       7   13    1         0.9510152697E-02      0.1114874625E-01
          0                 5           1             7   13     1      -0.1988759114E-05       7   13    1        -0.1204526552E-03      0.1391210442E-03

    ------------------------------------------------
       NWT REQUIRED            5 OUTER ITERATIONS 
       AND A TOTAL OF          9 INNER ITERATIONS.
    ------------------------------------------------

 NO OUTPUT CONTROL FOR STRESS PERIOD    9   TIME STEP   25
 
 SOLVING FOR HEAD 
                                                   Max.-Head-Change                         Max.-Flux-Residual
  Residual-Control   Outer-Iter.   Inner-Iter.     Column Row Layer    Maximum-Head-Change  Column Row Layer    Maximum-Flux-Residual          L2-NORM 
          0                 1           2             5    6     1       0.1824378139E-01       5    6    1         0.9859567323E+00      0.2844650008E+01
          0                 2           2             4   13     1       0.1754187837E-01       4   13    1         0.1044761279E+01      0.1813535710E+01
          0                 3           2             4   13     1      -0.1176186145E-02       4   13    1        -0.7202546912E-01      0.1214995585E+00
          0                 4           1             4   13     1       0.4549120329E-04       4   13    1         0.2864358930E-02      0.4609778538E-02

    ------------------------------------------------
       NWT REQUIRED            4 OUTER ITERATIONS 
       AND A TOTAL OF          7 INNER ITERATIONS.
    ------------------------------------------------

 NO OUTPUT CONTROL FOR STRESS PERIOD    9   TIME STEP   26
 
 SOLVING FOR HEAD 
                                                   Max.-Head-Change                         Max.-Flux-Residual
  Residual-Control   Outer-Iter.   Inner-Iter.     Column Row Layer    Maximum-Head-Change  Column Row Layer    Maximum-Flux-Residual          L2-NORM 
          0                 1           2             5    6     1       0.1757185832E-01       5    6    1         0.9489023960E+00      0.2396668582E+01
          0                 2           2             5    6     1      -0.1709259478E-02       5    6    1        -0.9489002252E-01      0.2373995546E+00
          0                 3           2             5    6     1       0.1163942683E-03       5    6    1         0.6642306497E-02      0.1663164522E-01
          0                 4           1             5    6     1      -0.4631425408E-05       5    6    1        -0.2716706936E-03      0.6892945886E-03

    ------------------------------------------------
       NWT REQUIRED            4 OUTER ITERATIONS 
       AND A TOTAL OF          7 INNER ITERATIONS.
    ------------------------------------------------

 NO OUTPUT CONTROL FOR STRESS PERIOD    9   TIME STEP   27
 
 SOLVING FOR HEAD 
                                                   Max.-Head-Change                         Max.-Flux-Residual
  Residual-Control   Outer-Iter.   Inner-Iter.     Column Row Layer    Maximum-Head-Change  Column Row Layer    Maximum-Flux-Residual          L2-NORM 
          0                 1           2             5    6     1       0.1693739264E-01       5    6    1         0.9139377047E+00      0.2329869325E+01
          0                 2           2             5    6     1      -0.1647543523E-02       5    6    1        -0.9139357077E-01      0.2306709847E+00
          0                 3           2             5    6     1       0.1121916378E-03       5    6    1         0.6397554601E-02      0.1616189739E-01
          0                 4           1             5    6     1      -0.4464199114E-05       5    6    1        -0.2616603351E-03      0.6703045654E-03

    ------------------------------------------------
       NWT REQUIRED            4 OUTER ITERATIONS 
       AND A TOTAL OF          7 INNER ITERATIONS.
    ------------------------------------------------

 NO OUTPUT CONTROL FOR STRESS PERIOD    9   TIME STEP   28
 
 SOLVING FOR HEAD 
                                                   Max.-Head-Change                         Max.-Flux-Residual
  Residual-Control   Outer-Iter.   Inner-Iter.     Column Row Layer    Maximum-Head-Change  Column Row Layer    Maximum-Flux-Residual          L2-NORM 
          0                 1           2             5    6     1       0.1633869228E-01       5    6    1         0.8809663737E+00      0.2266778625E+01
          0                 2           2             5    6     1      -0.1589306538E-02       5    6    1        -0.8809645358E-01      0.2243120057E+00
          0                 3           2             5    6     1       0.1082259128E-03       5    6    1         0.6166756157E-02      0.1571789681E-01
          0                 4           1             5    6     1      -0.4306399469E-05       5    6    1        -0.2522206798E-03      0.6523889859E-03

    ------------------------------------------------
       NWT REQUIRED            4 OUTER ITERATIONS 
       AND A TOTAL OF          7 INNER ITERATIONS.
    ------------------------------------------------

 NO OUTPUT CONTROL FOR STRESS PERIOD    9   TIME STEP   29
 
 SOLVING FOR HEAD 
                                                   Max.-Head-Change                         Max.-Flux-Residual
  Residual-Control   Outer-Iter.   Inner-Iter.     Column Row Layer    Maximum-Head-Change  Column Row Layer    Maximum-Flux-Residual          L2-NORM 
          0                 1           2             5    7     1       0.1587230241E-01       5    6    1         0.8498011108E+00      0.2207098983E+01
          0                 2           2             5    7     1      -0.1543941298E-02       5    6    1        -0.8497994188E-01      0.2182933758E+00
          0                 3           2             5    7     1       0.1051366880E-03       5    6    1         0.5948600097E-02      0.1529751329E-01
          0                 4           1             5    7     1      -0.4183489243E-05       5    6    1        -0.2432980882E-03      0.6354343606E-03

    ------------------------------------------------
       NWT REQUIRED            4 OUTER ITERATIONS 
       AND A TOTAL OF          7 INNER ITERATIONS.
    ------------------------------------------------

 NO OUTPUT CONTROL FOR STRESS PERIOD    9   TIME STEP   30



 STREAM LISTING     PERIOD      9   STEP       30

 LAYER ROW COL. STREAM  RCH.  FLOW INTO     FLOW TO   FLOW OUT OF   OVRLND.     DIRECT     STREAM       STREAM     STREAM     STREAM   STREAMBED  STREAMBED
                SEG.NO.  NO.  STRM. RCH.    AQUIFER    STRM. RCH.    RUNOFF     PRECIP       ET          HEAD       DEPTH      WIDTH   CONDCTNC.   GRADIENT

   1    1    1     1     1    6.1000E+01  3.7546E-01   6.0625E+01  0.000E+00  0.000E+00  0.000E+00  1.09459E+03  1.538E+00  1.839E+01  8.274E-02  1.513E+00
   1    2    2     1     2    6.0625E+01  5.8146E-01   6.0043E+01  0.000E+00  0.000E+00  0.000E+00  1.08959E+03  1.532E+00  1.833E+01  1.283E-01  1.511E+00
   1    3    3     1     3    6.0043E+01  4.9589E-01   5.9547E+01  0.000E+00  0.000E+00  0.000E+00  1.08394E+03  1.525E+00  1.826E+01  1.096E-01  1.508E+00
   1    3    4     1     4    5.9547E+01  4.5664E-01   5.9091E+01  0.000E+00  0.000E+00  0.000E+00  1.07893E+03  1.519E+00  1.821E+01  1.010E-01  1.506E+00
   1    4    5     2     1    5.7091E+01  3.8827E-01   5.6702E+01  0.000E+00  0.000E+00  0.000E+00  1.07391E+03  1.978E+00  1.200E+01  7.800E-02  1.659E+00
   1    5    6     2     2    5.6702E+01  2.9824E-01   5.6404E+01  0.000E+00  0.000E+00  0.000E+00  1.06848E+03  1.971E+00  1.200E+01  6.000E-02  1.657E+00
   1    6    6     2     3    5.6404E+01  2.9787E-01   5.6106E+01  0.000E+00  0.000E+00  0.000E+00  1.06376E+03  1.964E+00  1.200E+01  6.000E-02  1.655E+00
   1    7    6     2     4    5.6106E+01  2.9749E-01   5.5809E+01  0.000E+00  0.000E+00  0.000E+00  1.05903E+03  1.958E+00  1.200E+01  6.000E-02  1.653E+00
   1    8    6     2     5    5.5809E+01  2.9712E-01   5.5512E+01  0.000E+00  0.000E+00  0.000E+00  1.05431E+03  1.952E+00  1.200E+01  6.000E-02  1.651E+00
   1    3    5     3     1    2.0000E+00  2.8252E-01   1.7175E+00  0.000E+00  0.000E+00  0.000E+00  1.07555E+03  1.909E+00  9.636E+00  7.227E-02  1.955E+00
   1    3    6     3     2    1.7175E+00  2.4905E-01   1.4684E+00  0.000E+00  0.000E+00  0.000E+00  1.07264E+03  1.727E+00  8.909E+00  6.682E-02  1.864E+00
   1    3    7     3     3    1.4684E+00  1.9718E-01   1.2712E+00  0.000E+00  0.000E+00  0.000E+00  1.06987E+03  1.555E+00  8.218E+00  5.547E-02  1.777E+00
   1    4    8     3     4    1.2712E+00  2.2567E-01   1.0456E+00  0.000E+00  0.000E+00  0.000E+00  1.06682E+03  1.364E+00  7.455E+00  6.709E-02  1.682E+00
   1    5    8     3     5    1.0456E+00  1.5790E-01   8.8768E-01  0.000E+00  0.000E+00  0.000E+00  1.06362E+03  1.164E+00  6.655E+00  4.991E-02  1.582E+00
   1    6    8     3     6    8.8768E-01  5.5980E-02   8.3170E-01  0.000E+00  0.000E+00  0.000E+00  1.06158E+03  1.036E+00  6.145E+00  1.844E-02  1.518E+00
   1    5   10     4     1    1.0000E+01  9.0919E-02   9.9091E+00  0.000E+00  0.000E+00  0.000E+00  1.07836E+03  6.368E-01  1.000E+01  2.500E-02  1.212E+00
   1    5    9     4     2    9.9091E+00  1.8158E-01   9.7275E+00  0.000E+00  0.000E+00  0.000E+00  1.07154E+03  6.315E-01  1.000E+01  5.000E-02  1.211E+00
   1    6    8     4     3    9.7275E+00  1.2689E-01   9.6006E+00  0.000E+00  0.000E+00  0.000E+00  1.06381E+03  6.256E-01  1.000E+01  3.500E-02  1.209E+00
   1    6    8     5     1    1.0432E+01  2.2686E-01   1.0205E+01  0.000E+00  0.000E+00  0.000E+00  1.05868E+03  6.790E-01  1.542E+01  6.166E-02  1.226E+00
   1    7    7     5     2    1.0205E+01  2.7894E-01   9.9265E+00  0.000E+00  0.000E+00  0.000E+00  1.05417E+03  6.732E-01  1.519E+01  7.594E-02  1.224E+00
   1    8    7     5     3    9.9265E+00  1.9221E-01   9.7343E+00  0.000E+00  0.000E+00  0.000E+00  1.04992E+03  6.676E-01  1.497E+01  5.241E-02  1.223E+00
   1    8    6     5     4    9.7343E+00  1.3577E-01   9.5985E+00  0.000E+00  0.000E+00  0.000E+00  1.04691E+03  6.637E-01  1.482E+01  3.706E-02  1.221E+00
   1    9    6     6     1    6.5110E+01  3.0992E-01   6.4800E+01  0.000E+00  0.000E+00  0.000E+00  1.04489E+03  2.165E+00  1.200E+01  6.000E-02  1.722E+00
   1   10    7     6     2    6.4800E+01  3.0955E-01   6.4491E+01  0.000E+00  0.000E+00  0.000E+00  1.04034E+03  2.159E+00  1.200E+01  6.000E-02  1.720E+00
   1   11    7     6     3    6.4491E+01  3.0918E-01   6.4181E+01  0.000E+00  0.000E+00  0.000E+00  1.03579E+03  2.153E+00  1.200E+01  6.000E-02  1.718E+00
   1   12    7     6     4    6.4181E+01  3.0881E-01   6.3873E+01  0.000E+00  0.000E+00  0.000E+00  1.03124E+03  2.147E+00  1.200E+01  6.000E-02  1.716E+00
   1   13    7     6     5    6.3873E+01  2.4068E-02   6.3849E+01  0.000E+00  0.000E+00  0.000E+00  1.02805E+03  2.143E+00  1.200E+01  2.400E-02  3.343E-01
   1   14    9     7     1    1.5000E+02  1.3339E+00   1.4867E+02  0.000E+00  0.000E+00  0.000E+00  1.03987E+03  2.288E+00  5.529E+01  5.593E-01  7.950E-01
   1   13    8     7     2    1.4867E+02  1.8258E+00   1.4684E+02  0.000E+00  0.000E+00  0.000E+00  1.03478E+03  2.279E+00  5.526E+01  6.148E-01  9.899E-01
   1   13    7     7     3    1.4684E+02  1.4744E+00   1.4537E+02  0.000E+00  0.000E+00  0.000E+00  1.02969E+03  2.271E+00  5.522E+01  5.585E-01  8.801E-01
   1   13    6     8     1    2.0921E+02  1.1423E+00   2.0807E+02  0.000E+00  0.000E+00  0.000E+00  1.02506E+03  3.188E+00  4.622E+01  4.710E-01  8.083E-01
   1   13    5     8     2    2.0807E+02  4.4974E-01   2.0762E+02  0.000E+00  0.000E+00  0.000E+00  1.01881E+03  3.183E+00  4.616E+01  4.704E-01  3.187E-01
   1   13    4     8     3    2.0762E+02 -1.0605E+00   2.0868E+02  0.000E+00  0.000E+00  0.000E+00  1.01256E+03  3.185E+00  4.618E+01  4.706E+00 -7.511E-02
   1   13    3     8     4    2.0868E+02 -2.3798E+00   2.1106E+02  0.000E+00  0.000E+00  0.000E+00  1.00632E+03  3.195E+00  4.633E+01  4.721E+00 -1.680E-01
   1   13    2     8     5    2.1106E+02 -1.7214E+00   2.1278E+02  0.000E+00  0.000E+00  0.000E+00  1.00008E+03  3.207E+00  4.650E+01  4.738E+00 -1.211E-01
   1   13    1     8     6    2.1278E+02 -7.8888E-01   2.1357E+02  0.000E+00  0.000E+00  0.000E+00  9.95089E+02  3.214E+00  4.660E+01  2.849E+00 -9.229E-02
   1    8    6     9     1    0.0000E+00  0.0000E+00   0.0000E+00  0.000E+00  0.000E+00  0.000E+00  1.07875E+03  0.000E+00  4.000E+00  0.000E+00  1.000E+00
   1    8    5     9     2    0.0000E+00  0.0000E+00   0.0000E+00  0.000E+00  0.000E+00  0.000E+00  1.07825E+03  0.000E+00  4.000E+00  0.000E+00  1.000E+00





UNSATURATED ZONE PACKAGE VOLUMETRIC BUDGET FOR  TIME STEP    30 STRESS PERIOD    9
  ------------------------------------------------------------------------------



     CUMULATIVE VOLUMES      L**3       RATES FOR THIS TIME STEP      L**3/T
     ------------------                 ------------------------

           IN:                                      IN:
           ---                                      ---
        INFILTRATION =   168013908.1370          INFILTRATION =           0.8475

          OUT:                                     OUT:
          ----                                     ----
              UZF ET =    86701890.2109                UZF ET =          10.3070
        UZF RECHARGE =     7928983.4744          UZF RECHARGE =           0.1551

            IN - OUT =    73383034.4516              IN - OUT =          -9.6146

          STORAGE:                                 STORAGE:
          --------                                 --------
      STORAGE CHANGE =    73455873.5385        STORAGE CHANGE =          -9.6146

 PERCENT DISCREPANCY IS DIFFERENCE BETWEEN IN-OUT MINUS CHANGE IN STORAGE
 DIVIDED BY THE AVERAGE OF IN AND OUT TIMES 100

 PERCENT DISCREPANCY =          -0.01     PERCENT DISCREPANCY =           0.00






1
  VOLUMETRIC BUDGET FOR ENTIRE MODEL AT END OF TIME STEP   30, STRESS PERIOD   9
  ------------------------------------------------------------------------------

     CUMULATIVE VOLUMES      L**3       RATES FOR THIS TIME STEP      L**3/T
     ------------------                 ------------------------

           IN:                                      IN:
           ---                                      ---
               AWU WELLS =    83320120.0000                 AWU WELLS =           0.0000
      DIVERSION SEGMENTS =    66801856.0000        DIVERSION SEGMENTS =           0.0000
           GW IRRIGATION =           0.0000             GW IRRIGATION =           0.0000
           SW IRRIGATION =           0.0000             SW IRRIGATION =           0.0000
        SYSTEM LOSSES GW =           0.0000          SYSTEM LOSSES GW =           0.0000
        SYSTEM LOSSES SW =           0.0000          SYSTEM LOSSES SW =           0.0000

                TOTAL IN =   150121984.0000                  TOTAL IN =           0.0000

          OUT:                                     OUT:
          ----                                     ----
               AWU WELLS =           0.0000                 AWU WELLS =           0.0000
      DIVERSION SEGMENTS =           0.0000        DIVERSION SEGMENTS =           0.0000
           GW IRRIGATION =    83320120.0000             GW IRRIGATION =           0.0000
           SW IRRIGATION =    66803188.0000             SW IRRIGATION =           0.0000
        SYSTEM LOSSES GW =           0.0000          SYSTEM LOSSES GW =           0.0000
        SYSTEM LOSSES SW =           0.0000          SYSTEM LOSSES SW =           0.0000

               TOTAL OUT =   150123312.0000                 TOTAL OUT =           0.0000

                IN - OUT =       -1328.0000                  IN - OUT =           0.0000

     PERCENT DISCREPANCY =          -0.00         PERCENT DISCREPANCY =           0.00



1
  VOLUMETRIC BUDGET FOR ENTIRE MODEL AT END OF TIME STEP   30, STRESS PERIOD   9
  ------------------------------------------------------------------------------

     CUMULATIVE VOLUMES      L**3       RATES FOR THIS TIME STEP      L**3/T
     ------------------                 ------------------------

           IN:                                      IN:
           ---                                      ---
             STORAGE     =   138567904.0000               STORAGE     =           4.8317
       CONSTANT HEAD     =           0.0000         CONSTANT HEAD     =           0.0000
     HEAD DEP BOUNDS     =     6031781.5000       HEAD DEP BOUNDS     =           0.2856
      STREAM LEAKAGE     =   273984384.0000        STREAM LEAKAGE     =          13.3776
        UZF RECHARGE     =     7928978.5000          UZF RECHARGE     =           0.1551
               GW ET     =           0.0000                 GW ET     =           0.0000
     SURFACE LEAKAGE     =           0.0000       SURFACE LEAKAGE     =           0.0000
           AWU WELLS     =           0.0000             AWU WELLS     =           0.0000

                TOTAL IN =   426513056.0000                  TOTAL IN =          18.6500

          OUT:                                     OUT:
          ----                                     ----
             STORAGE     =    94712936.0000               STORAGE     =           6.1041
       CONSTANT HEAD     =           0.0000         CONSTANT HEAD     =           0.0000
     HEAD DEP BOUNDS     =     6127721.5000       HEAD DEP BOUNDS     =           0.2799
      STREAM LEAKAGE     =   191784560.0000        STREAM LEAKAGE     =           5.9506
        UZF RECHARGE     =           0.0000          UZF RECHARGE     =           0.0000
               GW ET     =    50575188.0000                 GW ET     =           6.3154
     SURFACE LEAKAGE     =           0.0000       SURFACE LEAKAGE     =           0.0000
           AWU WELLS     =    83320120.0000             AWU WELLS     =           0.0000

               TOTAL OUT =   426520544.0000                 TOTAL OUT =          18.6500

                IN - OUT =       -7488.0000                  IN - OUT =       2.2888E-05

     PERCENT DISCREPANCY =          -0.00         PERCENT DISCREPANCY =           0.00






         TIME SUMMARY AT END OF TIME STEP   30 IN STRESS PERIOD    9
                    SECONDS     MINUTES      HOURS       DAYS        YEARS
                    -----------------------------------------------------------
   TIME STEP LENGTH  87600.      1460.0      24.333      1.0139     2.77588E-03
 STRESS PERIOD TIME 2.62800E+06  43800.      730.00      30.417     8.32763E-02
         TOTAL TIME 2.11104E+07 3.51840E+05  5864.0      244.33     0.66895    
1
1
                            STRESS PERIOD NO.   10, LENGTH =   2628000.    
                            -----------------------------------------------

                              NUMBER OF TIME STEPS =    30

                               MULTIPLIER FOR DELT =     1.000

                            INITIAL TIME STEP SIZE =   87600.00    

 REUSING NON-PARAMETER GHB CELLS FROM LAST STRESS PERIOD

      2 GHB CELLS

 REUSING STREAM SEGMENT DATA FROM LAST STRESS PERIOD



            AREAL INFILTRATION RATE
 READING ON UNIT   19 WITH FORMAT: (10F4.0)            

            1           2           3           4           5           6           7           8           9          10
 ........................................................................................................................
   1   1.0000E-10  2.0000E-10   0.000       0.000       0.000       0.000       0.000       0.000       0.000       0.000    
   2   2.0000E-10  1.0000E-10  2.0000E-10   0.000       0.000      8.0000E-10  8.0000E-10  5.0000E-10   0.000       0.000    
   3    0.000      5.0000E-10  1.0000E-10  1.0000E-10  8.0000E-10  8.0000E-10  5.0000E-10  5.0000E-10   0.000       0.000    
   4   8.0000E-10  5.0000E-10  1.0000E-10  1.0000E-10  1.0000E-10  1.0000E-10  1.0000E-10  1.0000E-10  2.0000E-10   0.000    
   5   8.0000E-10  5.0000E-10  1.0000E-10  1.0000E-10  1.0000E-10  1.0000E-10  1.0000E-10  1.0000E-10  1.0000E-10  1.0000E-10
   6   8.0000E-10  5.0000E-10  5.0000E-10  2.0000E-10  2.0000E-10  1.0000E-10  1.0000E-10  1.0000E-10  1.0000E-10  5.0000E-10
   7   8.0000E-10  5.0000E-10  5.0000E-10  2.0000E-10  2.0000E-10  1.0000E-10  1.0000E-10  2.0000E-10  2.0000E-10   0.000    
   8    0.000      5.0000E-10  5.0000E-10  2.0000E-10  2.0000E-10  1.0000E-10  1.0000E-10  2.0000E-10  5.0000E-10   0.000    
   9    0.000      5.0000E-10  5.0000E-10  2.0000E-10  2.0000E-10  1.0000E-10  1.0000E-10  2.0000E-10  5.0000E-10   0.000    
  10    0.000      5.0000E-10  5.0000E-10  2.0000E-10  2.0000E-10  1.0000E-10  1.0000E-10  2.0000E-10  5.0000E-10  8.0000E-10
  11    0.000      1.0000E-10  1.0000E-10  1.0000E-10  1.0000E-10  1.0000E-10  1.0000E-10  2.0000E-10  5.0000E-10   0.000    
  12   1.0000E-10  1.0000E-10  1.0000E-10  1.0000E-10  1.0000E-10  1.0000E-10  1.0000E-10  1.0000E-10  2.0000E-10   0.000    
  13   1.0000E-10  1.0000E-10  2.0000E-10  2.0000E-10  2.0000E-10  2.0000E-10  2.0000E-10  1.0000E-10  1.0000E-10   0.000    
  14    0.000      2.0000E-10  5.0000E-10  5.0000E-10  5.0000E-10  5.0000E-10  5.0000E-10  2.0000E-10  1.0000E-10   0.000    
  15    0.000       0.000      8.0000E-10  8.0000E-10  8.0000E-10  8.0000E-10   0.000       0.000       0.000       0.000    

                  ET RATE =  1.500000E-08

 USING ET EXTINCTION DEPTH FROM PREVIOUS STRESS PERIOD. CURRENT PERIOD IS:      10

 USING EXTINCTION WATER CONTENT FROM PREVIOUS STRESS PERIOD. CURRENT PERIOD IS:      10

 PROCESSING AWU STRESS PERIOD DATA

 READING AWU STRESS PERIOD DATA

 READING IRRIGATION STREAM

 READING IRRIGATION WELL

 READING SUPPLEMENTAL WEL

 END PROCESSING AWU STRESS PERIOD DATA OPTIONS
 
 SOLVING FOR HEAD 
                                                   Max.-Head-Change                         Max.-Flux-Residual
  Residual-Control   Outer-Iter.   Inner-Iter.     Column Row Layer    Maximum-Head-Change  Column Row Layer    Maximum-Flux-Residual          L2-NORM 
          0                 1           2             3   13     1       0.2024776250E-01       3   13    1         0.1158932007E+01      0.3046934810E+01
          0                 2           2             4   13     1      -0.1912762493E-02       4   13    1        -0.1127281739E+00      0.2989630545E+00
          0                 3           2             4   13     1       0.1280117603E-03       4   13    1         0.7756083745E-02      0.2057560318E-01
          0                 4           1             4   13     1      -0.4942615427E-05       4   13    1        -0.3078679274E-03      0.8264537148E-03

    ------------------------------------------------
       NWT REQUIRED            4 OUTER ITERATIONS 
       AND A TOTAL OF          7 INNER ITERATIONS.
    ------------------------------------------------

 NO OUTPUT CONTROL FOR STRESS PERIOD   10   TIME STEP    1
 
 SOLVING FOR HEAD 
                                                   Max.-Head-Change                         Max.-Flux-Residual
  Residual-Control   Outer-Iter.   Inner-Iter.     Column Row Layer    Maximum-Head-Change  Column Row Layer    Maximum-Flux-Residual          L2-NORM 
          0                 1           2             5    7     1       0.1525141052E-01       5    7    1         0.8093707843E+00      0.2589030106E+01
          0                 2           2             5    7     1      -0.1483545808E-02       5    7    1        -0.8093703489E-01      0.2557136256E+00
          0                 3           1             5    7     1       0.1010240114E-03       5    7    1         0.5665595300E-02      0.1774759451E-01
          0                 4           1             5    7     1      -0.4019876805E-05       5    7    1        -0.2317261224E-03      0.7247768104E-03

    ------------------------------------------------
       NWT REQUIRED            4 OUTER ITERATIONS 
       AND A TOTAL OF          6 INNER ITERATIONS.
    ------------------------------------------------

 NO OUTPUT CONTROL FOR STRESS PERIOD   10   TIME STEP    2
 
 SOLVING FOR HEAD 
                                                   Max.-Head-Change                         Max.-Flux-Residual
  Residual-Control   Outer-Iter.   Inner-Iter.     Column Row Layer    Maximum-Head-Change  Column Row Layer    Maximum-Flux-Residual          L2-NORM 
          0                 1           2             4    7     1       0.1504218586E-01       5    7    1         0.7932467626E+00      0.2224381911E+01
          0                 2           2             2   13     1       0.3061013951E-02       2   13    1         0.1782881594E+00      0.3434558033E+00
          0                 3           2             4   13     1      -0.2594164507E-03       4   13    1        -0.1540713854E-01      0.2760079600E-01
          0                 4           1             4   13     1       0.1740325557E-04       4   13    1         0.1062133160E-02      0.1559942526E-02

    ------------------------------------------------
       NWT REQUIRED            4 OUTER ITERATIONS 
       AND A TOTAL OF          7 INNER ITERATIONS.
    ------------------------------------------------

 NO OUTPUT CONTROL FOR STRESS PERIOD   10   TIME STEP    3
 
 SOLVING FOR HEAD 
                                                   Max.-Head-Change                         Max.-Flux-Residual
  Residual-Control   Outer-Iter.   Inner-Iter.     Column Row Layer    Maximum-Head-Change  Column Row Layer    Maximum-Flux-Residual          L2-NORM 
          0                 1           2             4    7     1       0.1493176208E-01       4    7    1         0.7821770911E+00      0.2212283148E+01
          0                 2           2             4   13     1       0.1690556429E-01       4   13    1         0.1002062951E+01      0.1747130434E+01
          0                 3           2             7   13     1      -0.3061574992E-02       7   13    1        -0.1700694761E+00      0.2057540580E+00
          0                 4           2             7   13     1       0.2084070951E-03       7   13    1         0.1190812134E-01      0.1292754160E-01
          0                 5           1             7   13     1      -0.8291100877E-05       7   13    1        -0.4871367537E-03      0.5029560323E-03

    ------------------------------------------------
       NWT REQUIRED            5 OUTER ITERATIONS 
       AND A TOTAL OF          9 INNER ITERATIONS.
    ------------------------------------------------

 NO OUTPUT CONTROL FOR STRESS PERIOD   10   TIME STEP    4
 
 SOLVING FOR HEAD 
                                                   Max.-Head-Change                         Max.-Flux-Residual
  Residual-Control   Outer-Iter.   Inner-Iter.     Column Row Layer    Maximum-Head-Change  Column Row Layer    Maximum-Flux-Residual          L2-NORM 
          0                 1           2             4    7     1       0.1481426187E-01       4    7    1         0.7764325741E+00      0.2178619493E+01
          0                 2           2             4   13     1       0.1693178781E-01       4   13    1         0.1003602298E+01      0.1748772137E+01
          0                 3           2             7   13     1      -0.3055955055E-02       7   13    1        -0.1697590159E+00      0.2055818239E+00
          0                 4           2             7   13     1       0.2080237457E-03       7   13    1         0.1188628808E-01      0.1291180267E-01
          0                 5           1             7   13     1      -0.8275537007E-05       7   13    1        -0.4862233695E-03      0.5021199468E-03

    ------------------------------------------------
       NWT REQUIRED            5 OUTER ITERATIONS 
       AND A TOTAL OF          9 INNER ITERATIONS.
    ------------------------------------------------

 NO OUTPUT CONTROL FOR STRESS PERIOD   10   TIME STEP    5
 
 SOLVING FOR HEAD 
                                                   Max.-Head-Change                         Max.-Flux-Residual
  Residual-Control   Outer-Iter.   Inner-Iter.     Column Row Layer    Maximum-Head-Change  Column Row Layer    Maximum-Flux-Residual          L2-NORM 
          0                 1           2             4    7     1       0.1469040600E-01       4    7    1         0.7703208790E+00      0.2149392056E+01
          0                 2           2             4   13     1       0.1695511579E-01       4   13    1         0.1004966624E+01      0.1750408069E+01
          0                 3           2             7   13     1      -0.3050523435E-02       7   13    1        -0.1694570432E+00      0.2054287288E+00
          0                 4           2             7   13     1       0.2076540249E-03       7   13    1         0.1186515172E-01      0.1289667847E-01
          0                 5           1             7   13     1      -0.8260672883E-05       7   13    1        -0.4853489490E-03      0.5014760914E-03

    ------------------------------------------------
       NWT REQUIRED            5 OUTER ITERATIONS 
       AND A TOTAL OF          9 INNER ITERATIONS.
    ------------------------------------------------

 NO OUTPUT CONTROL FOR STRESS PERIOD   10   TIME STEP    6
 
 SOLVING FOR HEAD 
                                                   Max.-Head-Change                         Max.-Flux-Residual
  Residual-Control   Outer-Iter.   Inner-Iter.     Column Row Layer    Maximum-Head-Change  Column Row Layer    Maximum-Flux-Residual          L2-NORM 
          0                 1           2             4    7     1       0.1456113791E-01       4    7    1         0.7638941912E+00      0.2123822436E+01
          0                 2           2             4   13     1       0.1697567719E-01       4   13    1         0.1006172295E+01      0.1751625161E+01
          0                 3           2             7   13     1      -0.3045238300E-02       7   13    1        -0.1691631994E+00      0.2052657598E+00
          0                 4           2             7   13     1       0.2072943175E-03       7   13    1         0.1184458697E-01      0.1288221198E-01
          0                 5           1             7   13     1      -0.8246627546E-05       7   13    1        -0.4845236022E-03      0.5009976647E-03

    ------------------------------------------------
       NWT REQUIRED            5 OUTER ITERATIONS 
       AND A TOTAL OF          9 INNER ITERATIONS.
    ------------------------------------------------

 NO OUTPUT CONTROL FOR STRESS PERIOD   10   TIME STEP    7
 
 SOLVING FOR HEAD 
                                                   Max.-Head-Change                         Max.-Flux-Residual
  Residual-Control   Outer-Iter.   Inner-Iter.     Column Row Layer    Maximum-Head-Change  Column Row Layer    Maximum-Flux-Residual          L2-NORM 
          0                 1           2             4    7     1       0.1442652885E-01       4    7    1         0.7571570820E+00      0.2101411116E+01
          0                 2           2             4   13     1       0.1699389955E-01       4   13    1         0.1007236256E+01      0.1752856656E+01
          0                 3           2             7   13     1      -0.3040083406E-02       7   13    1        -0.1688766030E+00      0.2051084962E+00
          0                 4           2             7   13     1       0.2069427313E-03       7   13    1         0.1182449039E-01      0.1286757846E-01
          0                 5           1             7   13     1      -0.8233310506E-05       7   13    1        -0.4837409660E-03      0.5002540753E-03

    ------------------------------------------------
       NWT REQUIRED            5 OUTER ITERATIONS 
       AND A TOTAL OF          9 INNER ITERATIONS.
    ------------------------------------------------

 NO OUTPUT CONTROL FOR STRESS PERIOD   10   TIME STEP    8
 
 SOLVING FOR HEAD 
                                                   Max.-Head-Change                         Max.-Flux-Residual
  Residual-Control   Outer-Iter.   Inner-Iter.     Column Row Layer    Maximum-Head-Change  Column Row Layer    Maximum-Flux-Residual          L2-NORM 
          0                 1           2             4    7     1       0.1428772958E-01       4    7    1         0.7501724253E+00      0.2081645062E+01
          0                 2           2             4   13     1       0.1701006596E-01       4   13    1         0.1008178299E+01      0.1753977779E+01
          0                 3           2             7   13     1      -0.3035086542E-02       7   13    1        -0.1685982872E+00      0.2049528207E+00
          0                 4           2             7   13     1       0.2065972489E-03       7   13    1         0.1180500915E-01      0.1285327545E-01
          0                 5           1             7   13     1      -0.8220303850E-05       7   13    1        -0.4829626725E-03      0.4995788342E-03

    ------------------------------------------------
       NWT REQUIRED            5 OUTER ITERATIONS 
       AND A TOTAL OF          9 INNER ITERATIONS.
    ------------------------------------------------

 NO OUTPUT CONTROL FOR STRESS PERIOD   10   TIME STEP    9
 
 SOLVING FOR HEAD 
                                                   Max.-Head-Change                         Max.-Flux-Residual
  Residual-Control   Outer-Iter.   Inner-Iter.     Column Row Layer    Maximum-Head-Change  Column Row Layer    Maximum-Flux-Residual          L2-NORM 
          0                 1           2             4    7     1       0.1414472784E-01       4    7    1         0.7429407540E+00      0.1897995137E+01
          0                 2           2             4   13     1       0.1196825779E-01       4   13    1         0.7095121843E+00      0.1242762563E+01
          0                 3           2             7   13     1      -0.3007466158E-02       7   13    1        -0.1670849567E+00      0.1856273058E+00
          0                 4           2             7   13     1       0.2047132878E-03       7   13    1         0.1169416817E-01      0.1222454516E-01
          0                 5           1             7   13     1      -0.8148169501E-05       7   13    1        -0.4784123935E-03      0.4874220409E-03

    ------------------------------------------------
       NWT REQUIRED            5 OUTER ITERATIONS 
       AND A TOTAL OF          9 INNER ITERATIONS.
    ------------------------------------------------

 NO OUTPUT CONTROL FOR STRESS PERIOD   10   TIME STEP   10
 
 SOLVING FOR HEAD 
                                                   Max.-Head-Change                         Max.-Flux-Residual
  Residual-Control   Outer-Iter.   Inner-Iter.     Column Row Layer    Maximum-Head-Change  Column Row Layer    Maximum-Flux-Residual          L2-NORM 
          0                 1           2             4    7     1       0.1399831116E-01       4    7    1         0.7355058091E+00      0.1918200405E+01
          0                 2           2             4    7     1      -0.1361655929E-02       4    7    1        -0.7355071123E-01      0.1894613238E+00
          0                 3           1             4    7     1       0.9272370056E-04       4    7    1         0.5148550789E-02      0.1321982433E-01

    ------------------------------------------------
       NWT REQUIRED            3 OUTER ITERATIONS 
       AND A TOTAL OF          5 INNER ITERATIONS.
    ------------------------------------------------

 NO OUTPUT CONTROL FOR STRESS PERIOD   10   TIME STEP   11
 
 SOLVING FOR HEAD 
                                                   Max.-Head-Change                         Max.-Flux-Residual
  Residual-Control   Outer-Iter.   Inner-Iter.     Column Row Layer    Maximum-Head-Change  Column Row Layer    Maximum-Flux-Residual          L2-NORM 
          0                 1           2             4    7     1       0.1384917670E-01       4    7    1         0.7279058381E+00      0.1865249339E+01
          0                 2           2             4    7     1      -0.1347149308E-02       4    7    1        -0.7279072087E-01      0.1842017411E+00
          0                 3           1             4    7     1       0.9173585236E-04       4    7    1         0.5095351358E-02      0.1285934345E-01

    ------------------------------------------------
       NWT REQUIRED            3 OUTER ITERATIONS 
       AND A TOTAL OF          5 INNER ITERATIONS.
    ------------------------------------------------

 NO OUTPUT CONTROL FOR STRESS PERIOD   10   TIME STEP   12
 
 SOLVING FOR HEAD 
                                                   Max.-Head-Change                         Max.-Flux-Residual
  Residual-Control   Outer-Iter.   Inner-Iter.     Column Row Layer    Maximum-Head-Change  Column Row Layer    Maximum-Flux-Residual          L2-NORM 
          0                 1           2             4    7     1       0.1369725503E-01       4    7    1         0.7201378439E+00      0.1815453517E+01
          0                 2           2             4    7     1      -0.1332371554E-02       4    7    1        -0.7201392713E-01      0.1792499299E+00
          0                 3           1             4    7     1       0.9072954151E-04       4    7    1         0.5040975733E-02      0.1251884317E-01

    ------------------------------------------------
       NWT REQUIRED            3 OUTER ITERATIONS 
       AND A TOTAL OF          5 INNER ITERATIONS.
    ------------------------------------------------

 NO OUTPUT CONTROL FOR STRESS PERIOD   10   TIME STEP   13
 
 SOLVING FOR HEAD 
                                                   Max.-Head-Change                         Max.-Flux-Residual
  Residual-Control   Outer-Iter.   Inner-Iter.     Column Row Layer    Maximum-Head-Change  Column Row Layer    Maximum-Flux-Residual          L2-NORM 
          0                 1           2             4    7     1       0.1354323634E-01       4    7    1         0.7122400280E+00      0.1768532362E+01
          0                 2           2             4    7     1      -0.1317389802E-02       4    7    1        -0.7122415027E-01      0.1745795284E+00
          0                 3           1             4    7     1       0.8970933913E-04       4    7    1         0.4985691280E-02      0.1219758127E-01

    ------------------------------------------------
       NWT REQUIRED            3 OUTER ITERATIONS 
       AND A TOTAL OF          5 INNER ITERATIONS.
    ------------------------------------------------

 NO OUTPUT CONTROL FOR STRESS PERIOD   10   TIME STEP   14
 
 SOLVING FOR HEAD 
                                                   Max.-Head-Change                         Max.-Flux-Residual
  Residual-Control   Outer-Iter.   Inner-Iter.     Column Row Layer    Maximum-Head-Change  Column Row Layer    Maximum-Flux-Residual          L2-NORM 
          0                 1           2             4    7     1       0.1338749791E-01       4    7    1         0.7042334054E+00      0.1724255006E+01
          0                 2           2             4    7     1      -0.1302240754E-02       4    7    1        -0.7042349188E-01      0.1701658299E+00
          0                 3           1             4    7     1       0.8867774447E-04       4    7    1         0.4929645127E-02      0.1189402735E-01

    ------------------------------------------------
       NWT REQUIRED            3 OUTER ITERATIONS 
       AND A TOTAL OF          5 INNER ITERATIONS.
    ------------------------------------------------

 NO OUTPUT CONTROL FOR STRESS PERIOD   10   TIME STEP   15
 
 SOLVING FOR HEAD 
                                                   Max.-Head-Change                         Max.-Flux-Residual
  Residual-Control   Outer-Iter.   Inner-Iter.     Column Row Layer    Maximum-Head-Change  Column Row Layer    Maximum-Flux-Residual          L2-NORM 
          0                 1           2             4    7     1       0.1323039339E-01       4    7    1         0.6961375525E+00      0.1682378065E+01
          0                 2           2             4    7     1      -0.1286958811E-02       4    7    1        -0.6961390971E-01      0.1659871695E+00
          0                 3           1             4    7     1       0.8763710062E-04       4    7    1         0.4872974332E-02      0.1160636999E-01

    ------------------------------------------------
       NWT REQUIRED            3 OUTER ITERATIONS 
       AND A TOTAL OF          5 INNER ITERATIONS.
    ------------------------------------------------

 NO OUTPUT CONTROL FOR STRESS PERIOD   10   TIME STEP   16
 
 SOLVING FOR HEAD 
                                                   Max.-Head-Change                         Max.-Flux-Residual
  Residual-Control   Outer-Iter.   Inner-Iter.     Column Row Layer    Maximum-Head-Change  Column Row Layer    Maximum-Flux-Residual          L2-NORM 
          0                 1           2             4    7     1       0.1307197204E-01       4    7    1         0.6879560206E+00      0.1765720657E+01
          0                 2           2             4   13     1       0.1271582891E-01       4   13    1         0.7536824340E+00      0.1315265428E+01
          0                 3           2             7   13     1      -0.2978960287E-02       7   13    1        -0.1655318847E+00      0.1846506848E+00
          0                 4           2             7   13     1       0.2027769480E-03       7   13    1         0.1158880168E-01      0.1199137762E-01
          0                 5           1             7   13     1      -0.8067534590E-05       7   13    1        -0.4739654576E-03      0.4756620208E-03

    ------------------------------------------------
       NWT REQUIRED            5 OUTER ITERATIONS 
       AND A TOTAL OF          9 INNER ITERATIONS.
    ------------------------------------------------

 NO OUTPUT CONTROL FOR STRESS PERIOD   10   TIME STEP   17
 
 SOLVING FOR HEAD 
                                                   Max.-Head-Change                         Max.-Flux-Residual
  Residual-Control   Outer-Iter.   Inner-Iter.     Column Row Layer    Maximum-Head-Change  Column Row Layer    Maximum-Flux-Residual          L2-NORM 
          0                 1           2             2   13     1      -0.1343667411E-01       2   13    1        -0.7575068655E+00      0.1971178614E+01
          0                 2           2             4   13     1       0.1413277551E-01       4   13    1         0.8367382997E+00      0.1454476238E+01
          0                 3           2             7   13     1      -0.2247641899E-02       7   13    1        -0.1248367989E+00      0.1557638265E+00
          0                 4           2             7   13     1       0.1529905720E-03       7   13    1         0.8741118581E-02      0.9432504226E-02
          0                 5           1             7   13     1      -0.6089757774E-05       7   13    1        -0.3577752750E-03      0.3608657606E-03

    ------------------------------------------------
       NWT REQUIRED            5 OUTER ITERATIONS 
       AND A TOTAL OF          9 INNER ITERATIONS.
    ------------------------------------------------

 NO OUTPUT CONTROL FOR STRESS PERIOD   10   TIME STEP   18
 
 SOLVING FOR HEAD 
                                                   Max.-Head-Change                         Max.-Flux-Residual
  Residual-Control   Outer-Iter.   Inner-Iter.     Column Row Layer    Maximum-Head-Change  Column Row Layer    Maximum-Flux-Residual          L2-NORM 
          0                 1           2             2   13     1      -0.1333516331E-01       2   13    1        -0.7516313296E+00      0.1947832031E+01
          0                 2           2             4   13     1       0.1708443452E-01       4   13    1         0.1012426737E+01      0.1760012132E+01
          0                 3           2             7   13     1      -0.2991706040E-02       7   13    1        -0.1661857077E+00      0.2003606258E+00
          0                 4           2             7   13     1       0.2036478957E-03       7   13    1         0.1163633901E-01      0.1238758701E-01
          0                 5           1             7   13     1      -0.8107603370E-05       7   13    1        -0.4763407430E-03      0.4794763775E-03

    ------------------------------------------------
       NWT REQUIRED            5 OUTER ITERATIONS 
       AND A TOTAL OF          9 INNER ITERATIONS.
    ------------------------------------------------

 NO OUTPUT CONTROL FOR STRESS PERIOD   10   TIME STEP   19
 
 SOLVING FOR HEAD 
                                                   Max.-Head-Change                         Max.-Flux-Residual
  Residual-Control   Outer-Iter.   Inner-Iter.     Column Row Layer    Maximum-Head-Change  Column Row Layer    Maximum-Flux-Residual          L2-NORM 
          0                 1           2             2   13     1      -0.1345448615E-01       4   13    1        -0.7585332292E+00      0.1941158955E+01
          0                 2           2             4   13     1       0.1708941136E-01       4   13    1         0.1012709681E+01      0.1760465040E+01
          0                 3           2             7   13     1      -0.2987895292E-02       7   13    1        -0.1659737780E+00      0.2002154506E+00
          0                 4           2             7   13     1       0.2033866494E-03       7   13    1         0.1162139894E-01      0.1237518115E-01
          0                 5           1             7   13     1      -0.8092692504E-05       7   13    1        -0.4754640950E-03      0.4786211268E-03

    ------------------------------------------------
       NWT REQUIRED            5 OUTER ITERATIONS 
       AND A TOTAL OF          9 INNER ITERATIONS.
    ------------------------------------------------

 NO OUTPUT CONTROL FOR STRESS PERIOD   10   TIME STEP   20
 
 SOLVING FOR HEAD 
                                                   Max.-Head-Change                         Max.-Flux-Residual
  Residual-Control   Outer-Iter.   Inner-Iter.     Column Row Layer    Maximum-Head-Change  Column Row Layer    Maximum-Flux-Residual          L2-NORM 
          0                 1           2             2   13     1      -0.1356713716E-01       4   13    1        -0.7708865101E+00      0.1934774646E+01
          0                 2           2             4   13     1       0.1709376197E-01       4   13    1         0.1012955760E+01      0.1760873531E+01
          0                 3           2             7   13     1      -0.2984168924E-02       7   13    1        -0.1657665340E+00      0.2000713381E+00
          0                 4           2             7   13     1       0.2031318557E-03       7   13    1         0.1160683027E-01      0.1236252670E-01
          0                 5           1             7   13     1      -0.8089508305E-05       7   13    1        -0.4752784657E-03      0.4784989130E-03

    ------------------------------------------------
       NWT REQUIRED            5 OUTER ITERATIONS 
       AND A TOTAL OF          9 INNER ITERATIONS.
    ------------------------------------------------

 NO OUTPUT CONTROL FOR STRESS PERIOD   10   TIME STEP   21
 
 SOLVING FOR HEAD 
                                                   Max.-Head-Change                         Max.-Flux-Residual
  Residual-Control   Outer-Iter.   Inner-Iter.     Column Row Layer    Maximum-Head-Change  Column Row Layer    Maximum-Flux-Residual          L2-NORM 
          0                 1           2             2   13     1      -0.1367351272E-01       4   13    1        -0.7821401098E+00      0.1928652424E+01
          0                 2           2             4   13     1       0.1709736247E-01       4   13    1         0.1013157576E+01      0.1761235139E+01
          0                 3           2             7   13     1      -0.2980539097E-02       7   13    1        -0.1655643542E+00      0.1999287733E+00
          0                 4           2             7   13     1       0.2028827594E-03       7   13    1         0.1159236147E-01      0.1235024209E-01
          0                 5           1             7   13     1      -0.8071005457E-05       7   13    1        -0.4742128399E-03      0.4777594937E-03

    ------------------------------------------------
       NWT REQUIRED            5 OUTER ITERATIONS 
       AND A TOTAL OF          9 INNER ITERATIONS.
    ------------------------------------------------

 NO OUTPUT CONTROL FOR STRESS PERIOD   10   TIME STEP   22
 
 SOLVING FOR HEAD 
                                                   Max.-Head-Change                         Max.-Flux-Residual
  Residual-Control   Outer-Iter.   Inner-Iter.     Column Row Layer    Maximum-Head-Change  Column Row Layer    Maximum-Flux-Residual          L2-NORM 
          0                 1           2             2   13     1      -0.1377387249E-01       4   13    1        -0.7924049492E+00      0.1922739870E+01
          0                 2           2             4   13     1       0.1710050378E-01       4   13    1         0.1013332426E+01      0.1761565552E+01
          0                 3           2             7   13     1      -0.2976969892E-02       7   13    1        -0.1653658423E+00      0.1997878356E+00
          0                 4           2             7   13     1       0.2026426937E-03       7   13    1         0.1157863422E-01      0.1233783777E-01
          0                 5           1             7   13     1      -0.8061047380E-05       7   13    1        -0.4736276433E-03      0.4768903427E-03

    ------------------------------------------------
       NWT REQUIRED            5 OUTER ITERATIONS 
       AND A TOTAL OF          9 INNER ITERATIONS.
    ------------------------------------------------

 NO OUTPUT CONTROL FOR STRESS PERIOD   10   TIME STEP   23
 
 SOLVING FOR HEAD 
                                                   Max.-Head-Change                         Max.-Flux-Residual
  Residual-Control   Outer-Iter.   Inner-Iter.     Column Row Layer    Maximum-Head-Change  Column Row Layer    Maximum-Flux-Residual          L2-NORM 
          0                 1           2             4    7     1       0.1195615911E-01       4    7    1         0.6299634067E+00      0.1454638528E+01
          0                 2           2             4   13     1       0.7679240374E-02       4   13    1         0.4552463572E+00      0.7928095663E+00
          0                 3           2             4   13     1      -0.5156552922E-03       4   13    1        -0.3141257225E-01      0.5594890575E-01
          0                 4           1             1   13     1       0.2425919732E-04       1   13    1         0.1402735411E-02      0.2493497723E-02

    ------------------------------------------------
       NWT REQUIRED            4 OUTER ITERATIONS 
       AND A TOTAL OF          7 INNER ITERATIONS.
    ------------------------------------------------

 NO OUTPUT CONTROL FOR STRESS PERIOD   10   TIME STEP   24
 
 SOLVING FOR HEAD 
                                                   Max.-Head-Change                         Max.-Flux-Residual
  Residual-Control   Outer-Iter.   Inner-Iter.     Column Row Layer    Maximum-Head-Change  Column Row Layer    Maximum-Flux-Residual          L2-NORM 
          0                 1           2             4    7     1       0.1179810092E-01       4    7    1         0.6217074814E+00      0.1388752988E+01
          0                 2           2             4    7     1      -0.1147635847E-02       4    7    1        -0.6217090618E-01      0.1365395057E+00
          0                 3           1             4    7     1       0.7814972331E-04       4    7    1         0.4351963818E-02      0.9569091322E-02

    ------------------------------------------------
       NWT REQUIRED            3 OUTER ITERATIONS 
       AND A TOTAL OF          5 INNER ITERATIONS.
    ------------------------------------------------

 NO OUTPUT CONTROL FOR STRESS PERIOD   10   TIME STEP   25
 
 SOLVING FOR HEAD 
                                                   Max.-Head-Change                         Max.-Flux-Residual
  Residual-Control   Outer-Iter.   Inner-Iter.     Column Row Layer    Maximum-Head-Change  Column Row Layer    Maximum-Flux-Residual          L2-NORM 
          0                 1           2             4    7     1       0.1164089389E-01       4    7    1         0.6134885032E+00      0.1362402410E+01
          0                 2           2             4    7     1      -0.1132343868E-02       4    7    1        -0.6134900697E-01      0.1338867440E+00
          0                 3           1             4    7     1       0.7710839665E-04       4    7    1         0.4294430863E-02      0.9385182862E-02

    ------------------------------------------------
       NWT REQUIRED            3 OUTER ITERATIONS 
       AND A TOTAL OF          5 INNER ITERATIONS.
    ------------------------------------------------

 NO OUTPUT CONTROL FOR STRESS PERIOD   10   TIME STEP   26
 
 SOLVING FOR HEAD 
                                                   Max.-Head-Change                         Max.-Flux-Residual
  Residual-Control   Outer-Iter.   Inner-Iter.     Column Row Layer    Maximum-Head-Change  Column Row Layer    Maximum-Flux-Residual          L2-NORM 
          0                 1           2             4    7     1       0.1148445856E-01       4    7    1         0.6053016725E+00      0.1337121328E+01
          0                 2           2             4    7     1      -0.1117126951E-02       4    7    1        -0.6053032227E-01      0.1313387819E+00
          0                 3           1             4    7     1       0.7607218119E-04       4    7    1         0.4237122917E-02      0.9208894484E-02

    ------------------------------------------------
       NWT REQUIRED            3 OUTER ITERATIONS 
       AND A TOTAL OF          5 INNER ITERATIONS.
    ------------------------------------------------

 NO OUTPUT CONTROL FOR STRESS PERIOD   10   TIME STEP   27
 
 SOLVING FOR HEAD 
                                                   Max.-Head-Change                         Max.-Flux-Residual
  Residual-Control   Outer-Iter.   Inner-Iter.     Column Row Layer    Maximum-Head-Change  Column Row Layer    Maximum-Flux-Residual          L2-NORM 
          0                 1           2             4    7     1       0.1132946515E-01       4    7    1         0.5971844906E+00      0.1312840325E+01
          0                 2           2             4    7     1      -0.1102050291E-02       4    7    1        -0.5971860229E-01      0.1288874277E+00
          0                 3           1             4    7     1       0.7504551691E-04       4    7    1         0.4180302516E-02      0.9038708970E-02

    ------------------------------------------------
       NWT REQUIRED            3 OUTER ITERATIONS 
       AND A TOTAL OF          5 INNER ITERATIONS.
    ------------------------------------------------

 NO OUTPUT CONTROL FOR STRESS PERIOD   10   TIME STEP   28
 
 SOLVING FOR HEAD 
                                                   Max.-Head-Change                         Max.-Flux-Residual
  Residual-Control   Outer-Iter.   Inner-Iter.     Column Row Layer    Maximum-Head-Change  Column Row Layer    Maximum-Flux-Residual          L2-NORM 
          0                 1           2             4    7     1       0.1117546568E-01       4    7    1         0.5891125228E+00      0.1289482584E+01
          0                 2           2             4    7     1      -0.1087070313E-02       4    7    1        -0.5891140351E-01      0.1265289568E+00
          0                 3           1             4    7     1       0.7402543618E-04       4    7    1         0.4123798601E-02      0.8874697820E-02

    ------------------------------------------------
       NWT REQUIRED            3 OUTER ITERATIONS 
       AND A TOTAL OF          5 INNER ITERATIONS.
    ------------------------------------------------

 NO OUTPUT CONTROL FOR STRESS PERIOD   10   TIME STEP   29
 
 SOLVING FOR HEAD 
                                                   Max.-Head-Change                         Max.-Flux-Residual
  Residual-Control   Outer-Iter.   Inner-Iter.     Column Row Layer    Maximum-Head-Change  Column Row Layer    Maximum-Flux-Residual          L2-NORM 
          0                 1           2             4    7     1       0.1102310591E-01       4    7    1         0.5811217368E+00      0.1267008034E+01
          0                 2           2             4    7     1      -0.1072249830E-02       4    7    1        -0.5811232283E-01      0.1242573883E+00
          0                 3           1             4    7     1       0.7301621661E-04       4    7    1         0.4067862953E-02      0.8716609822E-02

    ------------------------------------------------
       NWT REQUIRED            3 OUTER ITERATIONS 
       AND A TOTAL OF          5 INNER ITERATIONS.
    ------------------------------------------------

 NO OUTPUT CONTROL FOR STRESS PERIOD   10   TIME STEP   30



 STREAM LISTING     PERIOD     10   STEP       30

 LAYER ROW COL. STREAM  RCH.  FLOW INTO     FLOW TO   FLOW OUT OF   OVRLND.     DIRECT     STREAM       STREAM     STREAM     STREAM   STREAMBED  STREAMBED
                SEG.NO.  NO.  STRM. RCH.    AQUIFER    STRM. RCH.    RUNOFF     PRECIP       ET          HEAD       DEPTH      WIDTH   CONDCTNC.   GRADIENT

   1    1    1     1     1    4.7000E+01  3.2684E-01   4.6673E+01  0.000E+00  0.000E+00  0.000E+00  1.09443E+03  1.380E+00  1.658E+01  7.462E-02  1.460E+00
   1    2    2     1     2    4.6673E+01  5.0637E-01   4.6167E+01  0.000E+00  0.000E+00  0.000E+00  1.08944E+03  1.377E+00  1.653E+01  1.157E-01  1.459E+00
   1    3    3     1     3    4.6167E+01  4.3206E-01   4.5735E+01  0.000E+00  0.000E+00  0.000E+00  1.08379E+03  1.374E+00  1.646E+01  9.878E-02  1.458E+00
   1    3    4     1     4    4.5735E+01  3.9802E-01   4.5337E+01  0.000E+00  0.000E+00  0.000E+00  1.07878E+03  1.371E+00  1.641E+01  9.105E-02  1.457E+00
   1    4    5     2     1    4.3337E+01  3.6469E-01   4.2972E+01  0.000E+00  0.000E+00  0.000E+00  1.07361E+03  1.676E+00  1.200E+01  7.800E-02  1.559E+00
   1    5    6     2     2    4.2972E+01  2.8008E-01   4.2692E+01  0.000E+00  0.000E+00  0.000E+00  1.06818E+03  1.668E+00  1.200E+01  6.000E-02  1.556E+00
   1    6    6     2     3    4.2692E+01  2.7969E-01   4.2412E+01  0.000E+00  0.000E+00  0.000E+00  1.06345E+03  1.661E+00  1.200E+01  6.000E-02  1.554E+00
   1    7    6     2     4    4.2412E+01  2.7930E-01   4.2133E+01  0.000E+00  0.000E+00  0.000E+00  1.05873E+03  1.655E+00  1.200E+01  6.000E-02  1.552E+00
   1    8    6     2     5    4.2133E+01  2.7890E-01   4.1854E+01  0.000E+00  0.000E+00  0.000E+00  1.05401E+03  1.648E+00  1.200E+01  6.000E-02  1.549E+00
   1    3    5     3     1    2.0000E+00  2.8252E-01   1.7175E+00  0.000E+00  0.000E+00  0.000E+00  1.07555E+03  1.909E+00  9.636E+00  7.227E-02  1.955E+00
   1    3    6     3     2    1.7175E+00  2.4905E-01   1.4684E+00  0.000E+00  0.000E+00  0.000E+00  1.07264E+03  1.727E+00  8.909E+00  6.682E-02  1.864E+00
   1    3    7     3     3    1.4684E+00  1.9718E-01   1.2712E+00  0.000E+00  0.000E+00  0.000E+00  1.06987E+03  1.555E+00  8.218E+00  5.547E-02  1.777E+00
   1    4    8     3     4    1.2712E+00  2.2567E-01   1.0456E+00  0.000E+00  0.000E+00  0.000E+00  1.06682E+03  1.364E+00  7.455E+00  6.709E-02  1.682E+00
   1    5    8     3     5    1.0456E+00  1.5790E-01   8.8768E-01  0.000E+00  0.000E+00  0.000E+00  1.06362E+03  1.164E+00  6.655E+00  4.991E-02  1.582E+00
   1    6    8     3     6    8.8768E-01  5.5980E-02   8.3170E-01  0.000E+00  0.000E+00  0.000E+00  1.06158E+03  1.036E+00  6.145E+00  1.844E-02  1.518E+00
   1    5   10     4     1    1.0000E+01  9.0919E-02   9.9091E+00  0.000E+00  0.000E+00  0.000E+00  1.07836E+03  6.368E-01  1.000E+01  2.500E-02  1.212E+00
   1    5    9     4     2    9.9091E+00  1.8158E-01   9.7275E+00  0.000E+00  0.000E+00  0.000E+00  1.07154E+03  6.315E-01  1.000E+01  5.000E-02  1.211E+00
   1    6    8     4     3    9.7275E+00  1.2689E-01   9.6006E+00  0.000E+00  0.000E+00  0.000E+00  1.06381E+03  6.256E-01  1.000E+01  3.500E-02  1.209E+00
   1    6    8     5     1    1.0432E+01  2.2686E-01   1.0205E+01  0.000E+00  0.000E+00  0.000E+00  1.05868E+03  6.790E-01  1.542E+01  6.166E-02  1.226E+00
   1    7    7     5     2    1.0205E+01  2.7894E-01   9.9265E+00  0.000E+00  0.000E+00  0.000E+00  1.05417E+03  6.732E-01  1.519E+01  7.594E-02  1.224E+00
   1    8    7     5     3    9.9265E+00  1.9221E-01   9.7343E+00  0.000E+00  0.000E+00  0.000E+00  1.04992E+03  6.676E-01  1.497E+01  5.241E-02  1.223E+00
   1    8    6     5     4    9.7343E+00  1.3577E-01   9.5985E+00  0.000E+00  0.000E+00  0.000E+00  1.04691E+03  6.637E-01  1.482E+01  3.706E-02  1.221E+00
   1    9    6     6     1    5.1453E+01  2.9278E-01   5.1160E+01  0.000E+00  0.000E+00  0.000E+00  1.04461E+03  1.880E+00  1.200E+01  6.000E-02  1.627E+00
   1   10    7     6     2    5.1160E+01  2.9239E-01   5.0867E+01  0.000E+00  0.000E+00  0.000E+00  1.04005E+03  1.873E+00  1.200E+01  6.000E-02  1.624E+00
   1   11    7     6     3    5.0867E+01  2.9200E-01   5.0575E+01  0.000E+00  0.000E+00  0.000E+00  1.03550E+03  1.867E+00  1.200E+01  6.000E-02  1.622E+00
   1   12    7     6     4    5.0575E+01  2.9162E-01   5.0284E+01  0.000E+00  0.000E+00  0.000E+00  1.03095E+03  1.860E+00  1.200E+01  6.000E-02  1.620E+00
   1   13    7     6     5    5.0284E+01  1.6393E-02   5.0267E+01  0.000E+00  0.000E+00  0.000E+00  1.02777E+03  1.857E+00  1.200E+01  2.400E-02  2.277E-01
   1   14    9     7     1    1.5000E+02  1.3338E+00   1.4867E+02  0.000E+00  0.000E+00  0.000E+00  1.03987E+03  2.288E+00  5.529E+01  5.593E-01  7.949E-01
   1   13    8     7     2    1.4867E+02  1.8271E+00   1.4684E+02  0.000E+00  0.000E+00  0.000E+00  1.03478E+03  2.279E+00  5.526E+01  6.148E-01  9.906E-01
   1   13    7     7     3    1.4684E+02  1.4559E+00   1.4538E+02  0.000E+00  0.000E+00  0.000E+00  1.02969E+03  2.271E+00  5.522E+01  5.585E-01  8.690E-01
   1   13    6     8     1    1.9565E+02  1.0440E+00   1.9461E+02  0.000E+00  0.000E+00  0.000E+00  1.02498E+03  3.109E+00  4.508E+01  4.594E-01  7.576E-01
   1   13    5     8     2    1.9461E+02  2.9887E-01   1.9431E+02  0.000E+00  0.000E+00  0.000E+00  1.01873E+03  3.105E+00  4.502E+01  4.588E-01  2.172E-01
   1   13    4     8     3    1.9431E+02 -2.0446E+00   1.9635E+02  0.000E+00  0.000E+00  0.000E+00  1.01249E+03  3.110E+00  4.510E+01  4.595E+00 -1.483E-01
   1   13    3     8     4    1.9635E+02 -3.3199E+00   1.9967E+02  0.000E+00  0.000E+00  0.000E+00  1.00625E+03  3.126E+00  4.533E+01  4.619E+00 -2.396E-01
   1   13    2     8     5    1.9967E+02 -2.3135E+00   2.0199E+02  0.000E+00  0.000E+00  0.000E+00  1.00002E+03  3.143E+00  4.557E+01  4.643E+00 -1.661E-01
   1   13    1     8     6    2.0199E+02 -1.5442E+00   2.0353E+02  0.000E+00  0.000E+00  0.000E+00  9.95029E+02  3.154E+00  4.573E+01  2.796E+00 -1.841E-01
   1    8    6     9     1    0.0000E+00  0.0000E+00   0.0000E+00  0.000E+00  0.000E+00  0.000E+00  1.07875E+03  0.000E+00  4.000E+00  0.000E+00  1.000E+00
   1    8    5     9     2    0.0000E+00  0.0000E+00   0.0000E+00  0.000E+00  0.000E+00  0.000E+00  1.07825E+03  0.000E+00  4.000E+00  0.000E+00  1.000E+00





UNSATURATED ZONE PACKAGE VOLUMETRIC BUDGET FOR  TIME STEP    30 STRESS PERIOD   10
  ------------------------------------------------------------------------------



     CUMULATIVE VOLUMES      L**3       RATES FOR THIS TIME STEP      L**3/T
     ------------------                 ------------------------

           IN:                                      IN:
           ---                                      ---
        INFILTRATION =   172038042.2375          INFILTRATION =           0.8475

          OUT:                                     OUT:
          ----                                     ----
              UZF ET =    93489308.2054                UZF ET =           2.7391
        UZF RECHARGE =     8252535.3992          UZF RECHARGE =           0.1159

            IN - OUT =    70296198.6329              IN - OUT =          -2.0075

          STORAGE:                                 STORAGE:
          --------                                 --------
      STORAGE CHANGE =    70369917.5415        STORAGE CHANGE =          -2.0075

 PERCENT DISCREPANCY IS DIFFERENCE BETWEEN IN-OUT MINUS CHANGE IN STORAGE
 DIVIDED BY THE AVERAGE OF IN AND OUT TIMES 100

 PERCENT DISCREPANCY =          -0.01     PERCENT DISCREPANCY =           0.00






1
  VOLUMETRIC BUDGET FOR ENTIRE MODEL AT END OF TIME STEP   30, STRESS PERIOD  10
  ------------------------------------------------------------------------------

     CUMULATIVE VOLUMES      L**3       RATES FOR THIS TIME STEP      L**3/T
     ------------------                 ------------------------

           IN:                                      IN:
           ---                                      ---
               AWU WELLS =    83320120.0000                 AWU WELLS =           0.0000
      DIVERSION SEGMENTS =    68598824.0000        DIVERSION SEGMENTS =           0.0000
           GW IRRIGATION =           0.0000             GW IRRIGATION =           0.0000
           SW IRRIGATION =           0.0000             SW IRRIGATION =           0.0000
        SYSTEM LOSSES GW =           0.0000          SYSTEM LOSSES GW =           0.0000
        SYSTEM LOSSES SW =           0.0000          SYSTEM LOSSES SW =           0.0000

                TOTAL IN =   151918944.0000                  TOTAL IN =           0.0000

          OUT:                                     OUT:
          ----                                     ----
               AWU WELLS =           0.0000                 AWU WELLS =           0.0000
      DIVERSION SEGMENTS =           0.0000        DIVERSION SEGMENTS =           0.0000
           GW IRRIGATION =    83320120.0000             GW IRRIGATION =           0.0000
           SW IRRIGATION =    68600184.0000             SW IRRIGATION =           0.0000
        SYSTEM LOSSES GW =           0.0000          SYSTEM LOSSES GW =           0.0000
        SYSTEM LOSSES SW =           0.0000          SYSTEM LOSSES SW =           0.0000

               TOTAL OUT =   151920304.0000                 TOTAL OUT =           0.0000

                IN - OUT =       -1360.0000                  IN - OUT =           0.0000

     PERCENT DISCREPANCY =          -0.00         PERCENT DISCREPANCY =           0.00



1
  VOLUMETRIC BUDGET FOR ENTIRE MODEL AT END OF TIME STEP   30, STRESS PERIOD  10
  ------------------------------------------------------------------------------

     CUMULATIVE VOLUMES      L**3       RATES FOR THIS TIME STEP      L**3/T
     ------------------                 ------------------------

           IN:                                      IN:
           ---                                      ---
             STORAGE     =   147074384.0000               STORAGE     =           2.3647
       CONSTANT HEAD     =           0.0000         CONSTANT HEAD     =           0.0000
     HEAD DEP BOUNDS     =     6782405.0000       HEAD DEP BOUNDS     =           0.2856
      STREAM LEAKAGE     =   307527936.0000        STREAM LEAKAGE     =          12.6923
        UZF RECHARGE     =     8252530.5000          UZF RECHARGE     =           0.1159
               GW ET     =           0.0000                 GW ET     =           0.0000
     SURFACE LEAKAGE     =           0.0000       SURFACE LEAKAGE     =           0.0000
           AWU WELLS     =           0.0000             AWU WELLS     =           0.0000

                TOTAL IN =   469637248.0000                  TOTAL IN =          15.4585

          OUT:                                     OUT:
          ----                                     ----
             STORAGE     =   110671616.0000               STORAGE     =           4.4304
       CONSTANT HEAD     =           0.0000         CONSTANT HEAD     =           0.0000
     HEAD DEP BOUNDS     =     6877159.5000       HEAD DEP BOUNDS     =           0.2881
      STREAM LEAKAGE     =   214269232.0000        STREAM LEAKAGE     =           9.2221
        UZF RECHARGE     =           0.0000          UZF RECHARGE     =           0.0000
               GW ET     =    54507132.0000                 GW ET     =           1.5182
     SURFACE LEAKAGE     =           0.0000       SURFACE LEAKAGE     =           0.0000
           AWU WELLS     =    83320120.0000             AWU WELLS     =           0.0000

               TOTAL OUT =   469645280.0000                 TOTAL OUT =          15.4589

                IN - OUT =       -8032.0000                  IN - OUT =      -3.8338E-04

     PERCENT DISCREPANCY =          -0.00         PERCENT DISCREPANCY =          -0.00






         TIME SUMMARY AT END OF TIME STEP   30 IN STRESS PERIOD   10
                    SECONDS     MINUTES      HOURS       DAYS        YEARS
                    -----------------------------------------------------------
   TIME STEP LENGTH  87600.      1460.0      24.333      1.0139     2.77588E-03
 STRESS PERIOD TIME 2.62800E+06  43800.      730.00      30.417     8.32763E-02
         TOTAL TIME 2.37384E+07 3.95640E+05  6594.0      274.75     0.75222    
1
1
                            STRESS PERIOD NO.   11, LENGTH =   2628000.    
                            -----------------------------------------------

                              NUMBER OF TIME STEPS =    30

                               MULTIPLIER FOR DELT =     1.000

                            INITIAL TIME STEP SIZE =   87600.00    

 REUSING NON-PARAMETER GHB CELLS FROM LAST STRESS PERIOD

      2 GHB CELLS

 REUSING STREAM SEGMENT DATA FROM LAST STRESS PERIOD



            AREAL INFILTRATION RATE
 READING ON UNIT   19 WITH FORMAT: (10F4.0)            

            1           2           3           4           5           6           7           8           9          10
 ........................................................................................................................
   1   1.0000E-10  2.0000E-10   0.000       0.000       0.000       0.000       0.000       0.000       0.000       0.000    
   2   2.0000E-10  1.0000E-10  2.0000E-10   0.000       0.000      8.0000E-10  8.0000E-10  5.0000E-10   0.000       0.000    
   3    0.000      5.0000E-10  1.0000E-10  1.0000E-10  8.0000E-10  8.0000E-10  5.0000E-10  5.0000E-10   0.000       0.000    
   4   8.0000E-10  5.0000E-10  1.0000E-10  1.0000E-10  1.0000E-10  1.0000E-10  1.0000E-10  1.0000E-10  2.0000E-10   0.000    
   5   8.0000E-10  5.0000E-10  1.0000E-10  1.0000E-10  1.0000E-10  1.0000E-10  1.0000E-10  1.0000E-10  1.0000E-10  1.0000E-10
   6   8.0000E-10  5.0000E-10  5.0000E-10  2.0000E-10  2.0000E-10  1.0000E-10  1.0000E-10  1.0000E-10  1.0000E-10  5.0000E-10
   7   8.0000E-10  5.0000E-10  5.0000E-10  2.0000E-10  2.0000E-10  1.0000E-10  1.0000E-10  2.0000E-10  2.0000E-10   0.000    
   8    0.000      5.0000E-10  5.0000E-10  2.0000E-10  2.0000E-10  1.0000E-10  1.0000E-10  2.0000E-10  5.0000E-10   0.000    
   9    0.000      5.0000E-10  5.0000E-10  2.0000E-10  2.0000E-10  1.0000E-10  1.0000E-10  2.0000E-10  5.0000E-10   0.000    
  10    0.000      5.0000E-10  5.0000E-10  2.0000E-10  2.0000E-10  1.0000E-10  1.0000E-10  2.0000E-10  5.0000E-10  8.0000E-10
  11    0.000      1.0000E-10  1.0000E-10  1.0000E-10  1.0000E-10  1.0000E-10  1.0000E-10  2.0000E-10  5.0000E-10   0.000    
  12   1.0000E-10  1.0000E-10  1.0000E-10  1.0000E-10  1.0000E-10  1.0000E-10  1.0000E-10  1.0000E-10  2.0000E-10   0.000    
  13   1.0000E-10  1.0000E-10  2.0000E-10  2.0000E-10  2.0000E-10  2.0000E-10  2.0000E-10  1.0000E-10  1.0000E-10   0.000    
  14    0.000      2.0000E-10  5.0000E-10  5.0000E-10  5.0000E-10  5.0000E-10  5.0000E-10  2.0000E-10  1.0000E-10   0.000    
  15    0.000       0.000      8.0000E-10  8.0000E-10  8.0000E-10  8.0000E-10   0.000       0.000       0.000       0.000    

                  ET RATE =  1.000000E-09

 USING ET EXTINCTION DEPTH FROM PREVIOUS STRESS PERIOD. CURRENT PERIOD IS:      11

 USING EXTINCTION WATER CONTENT FROM PREVIOUS STRESS PERIOD. CURRENT PERIOD IS:      11

 PROCESSING AWU STRESS PERIOD DATA

 READING AWU STRESS PERIOD DATA

 READING IRRIGATION STREAM

 READING IRRIGATION WELL

 READING SUPPLEMENTAL WEL

 END PROCESSING AWU STRESS PERIOD DATA OPTIONS
 
 SOLVING FOR HEAD 
                                                   Max.-Head-Change                         Max.-Flux-Residual
  Residual-Control   Outer-Iter.   Inner-Iter.     Column Row Layer    Maximum-Head-Change  Column Row Layer    Maximum-Flux-Residual          L2-NORM 
          0                 1           2             4    7     1       0.1087188859E-01       4    7    1         0.5731864255E+00      0.1439837515E+01
          0                 2           2             4    7     1      -0.1057540474E-02       4    7    1        -0.5731878948E-01      0.1414553252E+00
          0                 3           1             4    7     1       0.7201456373E-04       4    7    1         0.4012315615E-02      0.9863352015E-02

    ------------------------------------------------
       NWT REQUIRED            3 OUTER ITERATIONS 
       AND A TOTAL OF          5 INNER ITERATIONS.
    ------------------------------------------------

 NO OUTPUT CONTROL FOR STRESS PERIOD   11   TIME STEP    1
 
 SOLVING FOR HEAD 
                                                   Max.-Head-Change                         Max.-Flux-Residual
  Residual-Control   Outer-Iter.   Inner-Iter.     Column Row Layer    Maximum-Head-Change  Column Row Layer    Maximum-Flux-Residual          L2-NORM 
          0                 1           2             4    7     1       0.1072213063E-01       4    7    1         0.5653251985E+00      0.1311196530E+01
          0                 2           2             4    7     1      -0.1042973073E-02       4    7    1        -0.5653266453E-01      0.1293829289E+00
          0                 3           1             4    7     1       0.7102257825E-04       4    7    1         0.3957286855E-02      0.9073961836E-02

    ------------------------------------------------
       NWT REQUIRED            3 OUTER ITERATIONS 
       AND A TOTAL OF          5 INNER ITERATIONS.
    ------------------------------------------------

 NO OUTPUT CONTROL FOR STRESS PERIOD   11   TIME STEP    2
 
 SOLVING FOR HEAD 
                                                   Max.-Head-Change                         Max.-Flux-Residual
  Residual-Control   Outer-Iter.   Inner-Iter.     Column Row Layer    Maximum-Head-Change  Column Row Layer    Maximum-Flux-Residual          L2-NORM 
          0                 1           2             4    7     1       0.1057362853E-01       4    7    1         0.5575248905E+00      0.1284446356E+01
          0                 2           2             4    7     1      -0.1028527832E-02       4    7    1        -0.5575263130E-01      0.1267520648E+00
          0                 3           1             4    7     1       0.7003891111E-04       4    7    1         0.3902684534E-02      0.8890672298E-02

    ------------------------------------------------
       NWT REQUIRED            3 OUTER ITERATIONS 
       AND A TOTAL OF          5 INNER ITERATIONS.
    ------------------------------------------------

 NO OUTPUT CONTROL FOR STRESS PERIOD   11   TIME STEP    3
 
 SOLVING FOR HEAD 
                                                   Max.-Head-Change                         Max.-Flux-Residual
  Residual-Control   Outer-Iter.   Inner-Iter.     Column Row Layer    Maximum-Head-Change  Column Row Layer    Maximum-Flux-Residual          L2-NORM 
          0                 1           2             4    7     1       0.1042700060E-01       4    7    1         0.5498193569E+00      0.1258865403E+01
          0                 2           2             4    7     1      -0.1014264896E-02       4    7    1        -0.5498207550E-01      0.1241809413E+00
          0                 3           1             4    7     1       0.6906765821E-04       4    7    1         0.3848745615E-02      0.8711415220E-02

    ------------------------------------------------
       NWT REQUIRED            3 OUTER ITERATIONS 
       AND A TOTAL OF          5 INNER ITERATIONS.
    ------------------------------------------------

 NO OUTPUT CONTROL FOR STRESS PERIOD   11   TIME STEP    4
 
 SOLVING FOR HEAD 
                                                   Max.-Head-Change                         Max.-Flux-Residual
  Residual-Control   Outer-Iter.   Inner-Iter.     Column Row Layer    Maximum-Head-Change  Column Row Layer    Maximum-Flux-Residual          L2-NORM 
          0                 1           2             4    7     1       0.1028201701E-01       4    7    1         0.5421962668E+00      0.1234436877E+01
          0                 2           2             4    7     1      -0.1000161908E-02       4    7    1        -0.5421976398E-01      0.1217244234E+00
          0                 3           1             4    7     1       0.6810729771E-04       4    7    1         0.3795383805E-02      0.8540365460E-02

    ------------------------------------------------
       NWT REQUIRED            3 OUTER ITERATIONS 
       AND A TOTAL OF          5 INNER ITERATIONS.
    ------------------------------------------------

 NO OUTPUT CONTROL FOR STRESS PERIOD   11   TIME STEP    5
 
 SOLVING FOR HEAD 
                                                   Max.-Head-Change                         Max.-Flux-Residual
  Residual-Control   Outer-Iter.   Inner-Iter.     Column Row Layer    Maximum-Head-Change  Column Row Layer    Maximum-Flux-Residual          L2-NORM 
          0                 1           2             4    7     1       0.1013872024E-01       4    7    1         0.5346584989E+00      0.1211049313E+01
          0                 2           2             4    7     1      -0.9862230025E-03       4    7    1        -0.5346598463E-01      0.1193728829E+00
          0                 3           1             4    7     1       0.6715811056E-04       4    7    1         0.3742619271E-02      0.8376571396E-02

    ------------------------------------------------
       NWT REQUIRED            3 OUTER ITERATIONS 
       AND A TOTAL OF          5 INNER ITERATIONS.
    ------------------------------------------------

 NO OUTPUT CONTROL FOR STRESS PERIOD   11   TIME STEP    6
 
 SOLVING FOR HEAD 
                                                   Max.-Head-Change                         Max.-Flux-Residual
  Residual-Control   Outer-Iter.   Inner-Iter.     Column Row Layer    Maximum-Head-Change  Column Row Layer    Maximum-Flux-Residual          L2-NORM 
          0                 1           2             4    7     1       0.9996886942E-02       4    7    1         0.5271934526E+00      0.1188634320E+01
          0                 2           2             4    7     1      -0.9724264518E-03       4    7    1        -0.5271947742E-01      0.1171189268E+00
          0                 3           1             4    7     1       0.6621861707E-04       4    7    1         0.3690363780E-02      0.8219251503E-02

    ------------------------------------------------
       NWT REQUIRED            3 OUTER ITERATIONS 
       AND A TOTAL OF          5 INNER ITERATIONS.
    ------------------------------------------------

 NO OUTPUT CONTROL FOR STRESS PERIOD   11   TIME STEP    7
 
 SOLVING FOR HEAD 
                                                   Max.-Head-Change                         Max.-Flux-Residual
  Residual-Control   Outer-Iter.   Inner-Iter.     Column Row Layer    Maximum-Head-Change  Column Row Layer    Maximum-Flux-Residual          L2-NORM 
          0                 1           2             4    7     1       0.9857108932E-02       4    7    1         0.5198339552E+00      0.1167141125E+01
          0                 2           2             4    7     1      -0.9588298234E-03       4    7    1        -0.5198352505E-01      0.1149579455E+00
          0                 3           1             4    7     1       0.6529273751E-04       4    7    1         0.3638847103E-02      0.8068493086E-02

    ------------------------------------------------
       NWT REQUIRED            3 OUTER ITERATIONS 
       AND A TOTAL OF          5 INNER ITERATIONS.
    ------------------------------------------------

 NO OUTPUT CONTROL FOR STRESS PERIOD   11   TIME STEP    8
 
 SOLVING FOR HEAD 
                                                   Max.-Head-Change                         Max.-Flux-Residual
  Residual-Control   Outer-Iter.   Inner-Iter.     Column Row Layer    Maximum-Head-Change  Column Row Layer    Maximum-Flux-Residual          L2-NORM 
          0                 1           2             4    7     1       0.9718858972E-02       4    7    1         0.5125514913E+00      0.1146479539E+01
          0                 2           2             4    7     1      -0.9453818330E-03       4    7    1        -0.5125527603E-01      0.1128806245E+00
          0                 3           1             4    7     1       0.6437697951E-04       4    7    1         0.3587869666E-02      0.7924031088E-02

    ------------------------------------------------
       NWT REQUIRED            3 OUTER ITERATIONS 
       AND A TOTAL OF          5 INNER ITERATIONS.
    ------------------------------------------------

 NO OUTPUT CONTROL FOR STRESS PERIOD   11   TIME STEP    9
 
 SOLVING FOR HEAD 
                                                   Max.-Head-Change                         Max.-Flux-Residual
  Residual-Control   Outer-Iter.   Inner-Iter.     Column Row Layer    Maximum-Head-Change  Column Row Layer    Maximum-Flux-Residual          L2-NORM 
          0                 1           2             4    7     1       0.9582442132E-02       4    7    1         0.5053631219E+00      0.1126597508E+01
          0                 2           2             4    7     1      -0.9321121546E-03       4    7    1        -0.5053643642E-01      0.1108778920E+00
          0                 3           1             4    7     1       0.6347336404E-04       4    7    1         0.3537550905E-02      0.7784497230E-02

    ------------------------------------------------
       NWT REQUIRED            3 OUTER ITERATIONS 
       AND A TOTAL OF          5 INNER ITERATIONS.
    ------------------------------------------------

 NO OUTPUT CONTROL FOR STRESS PERIOD   11   TIME STEP   10
 
 SOLVING FOR HEAD 
                                                   Max.-Head-Change                         Max.-Flux-Residual
  Residual-Control   Outer-Iter.   Inner-Iter.     Column Row Layer    Maximum-Head-Change  Column Row Layer    Maximum-Flux-Residual          L2-NORM 
          0                 1           2             4    7     1       0.9448147213E-02       4    7    1         0.4982846773E+00      0.1107454351E+01
          0                 2           2             4    7     1      -0.9190488811E-03       4    7    1        -0.4982858931E-01      0.1089484296E+00
          0                 3           1             4    7     1       0.6258380364E-04       4    7    1         0.3488001586E-02      0.7675348359E-02

    ------------------------------------------------
       NWT REQUIRED            3 OUTER ITERATIONS 
       AND A TOTAL OF          5 INNER ITERATIONS.
    ------------------------------------------------

 NO OUTPUT CONTROL FOR STRESS PERIOD   11   TIME STEP   11
 
 SOLVING FOR HEAD 
                                                   Max.-Head-Change                         Max.-Flux-Residual
  Residual-Control   Outer-Iter.   Inner-Iter.     Column Row Layer    Maximum-Head-Change  Column Row Layer    Maximum-Flux-Residual          L2-NORM 
          0                 1           2             4    7     1       0.9315431990E-02       4    7    1         0.4912867215E+00      0.1088994669E+01
          0                 2           2             4    7     1      -0.9061392698E-03       4    7    1        -0.4912879108E-01      0.1070875385E+00
          0                 3           1             4    7     1       0.6170470775E-04       4    7    1         0.3439015741E-02      0.7519546655E-02

    ------------------------------------------------
       NWT REQUIRED            3 OUTER ITERATIONS 
       AND A TOTAL OF          5 INNER ITERATIONS.
    ------------------------------------------------

 NO OUTPUT CONTROL FOR STRESS PERIOD   11   TIME STEP   12
 
 SOLVING FOR HEAD 
                                                   Max.-Head-Change                         Max.-Flux-Residual
  Residual-Control   Outer-Iter.   Inner-Iter.     Column Row Layer    Maximum-Head-Change  Column Row Layer    Maximum-Flux-Residual          L2-NORM 
          0                 1           2             4    7     1       0.9184866524E-02       4    7    1         0.4844003485E+00      0.1071191505E+01
          0                 2           2             4    7     1      -0.8934387711E-03       4    7    1        -0.4844015116E-01      0.1052926438E+00
          0                 3           1             4    7     1       0.6083985155E-04       4    7    1         0.3390810947E-02      0.7394696378E-02

    ------------------------------------------------
       NWT REQUIRED            3 OUTER ITERATIONS 
       AND A TOTAL OF          5 INNER ITERATIONS.
    ------------------------------------------------

 NO OUTPUT CONTROL FOR STRESS PERIOD   11   TIME STEP   13
 
 SOLVING FOR HEAD 
                                                   Max.-Head-Change                         Max.-Flux-Residual
  Residual-Control   Outer-Iter.   Inner-Iter.     Column Row Layer    Maximum-Head-Change  Column Row Layer    Maximum-Flux-Residual          L2-NORM 
          0                 1           2             4    7     1       0.9055894203E-02       4    7    1         0.4775959074E+00      0.1053987426E+01
          0                 2           2             4    7     1      -0.8808932420E-03       4    7    1        -0.4775970443E-01      0.1035574130E+00
          0                 3           1             4    7     1       0.5998554743E-04       4    7    1         0.3343179661E-02      0.7273267832E-02

    ------------------------------------------------
       NWT REQUIRED            3 OUTER ITERATIONS 
       AND A TOTAL OF          5 INNER ITERATIONS.
    ------------------------------------------------

 NO OUTPUT CONTROL FOR STRESS PERIOD   11   TIME STEP   14
 
 SOLVING FOR HEAD 
                                                   Max.-Head-Change                         Max.-Flux-Residual
  Residual-Control   Outer-Iter.   Inner-Iter.     Column Row Layer    Maximum-Head-Change  Column Row Layer    Maximum-Flux-Residual          L2-NORM 
          0                 1           2             4    7     1       0.8928806569E-02       4    7    1         0.4708889396E+00      0.1037357041E+01
          0                 2           2             4    7     1      -0.8685310420E-03       4    7    1        -0.4708900505E-01      0.1018804782E+00
          0                 3           1             4    7     1       0.5914372805E-04       4    7    1         0.3296230734E-02      0.7156314372E-02

    ------------------------------------------------
       NWT REQUIRED            3 OUTER ITERATIONS 
       AND A TOTAL OF          5 INNER ITERATIONS.
    ------------------------------------------------

 NO OUTPUT CONTROL FOR STRESS PERIOD   11   TIME STEP   15
 
 SOLVING FOR HEAD 
                                                   Max.-Head-Change                         Max.-Flux-Residual
  Residual-Control   Outer-Iter.   Inner-Iter.     Column Row Layer    Maximum-Head-Change  Column Row Layer    Maximum-Flux-Residual          L2-NORM 
          0                 1           2             4    7     1       0.8803875092E-02       4    7    1         0.4642945737E+00      0.1021271474E+01
          0                 2           2             4    7     1      -0.8563785777E-03       4    7    1        -0.4642956591E-01      0.1002579680E+00
          0                 3           1             4    7     1       0.5831619096E-04       4    7    1         0.3250069985E-02      0.7043924147E-02

    ------------------------------------------------
       NWT REQUIRED            3 OUTER ITERATIONS 
       AND A TOTAL OF          5 INNER ITERATIONS.
    ------------------------------------------------

 NO OUTPUT CONTROL FOR STRESS PERIOD   11   TIME STEP   16
 
 SOLVING FOR HEAD 
                                                   Max.-Head-Change                         Max.-Flux-Residual
  Residual-Control   Outer-Iter.   Inner-Iter.     Column Row Layer    Maximum-Head-Change  Column Row Layer    Maximum-Flux-Residual          L2-NORM 
          0                 1           2             4    7     1       0.8680808582E-02       4    7    1         0.4577972788E+00      0.1005689944E+01
          0                 2           2             4    7     1      -0.8444075248E-03       4    7    1        -0.4577983389E-01      0.9868411135E-01
          0                 3           1             4    7     1       0.5750100680E-04       4    7    1         0.3204588753E-02      0.6934058704E-02

    ------------------------------------------------
       NWT REQUIRED            3 OUTER ITERATIONS 
       AND A TOTAL OF          5 INNER ITERATIONS.
    ------------------------------------------------

 NO OUTPUT CONTROL FOR STRESS PERIOD   11   TIME STEP   17
 
 SOLVING FOR HEAD 
                                                   Max.-Head-Change                         Max.-Flux-Residual
  Residual-Control   Outer-Iter.   Inner-Iter.     Column Row Layer    Maximum-Head-Change  Column Row Layer    Maximum-Flux-Residual          L2-NORM 
          0                 1           2             4    7     1       0.8559336609E-02       4    7    1         0.4513819447E+00      0.9905917094E+00
          0                 2           2             4    7     1      -0.8325915769E-03       4    7    1        -0.4513829796E-01      0.9723278877E-01
          0                 3           1             4    7     1       0.5669638513E-04       4    7    1         0.3159681250E-02      0.6832863251E-02

    ------------------------------------------------
       NWT REQUIRED            3 OUTER ITERATIONS 
       AND A TOTAL OF          5 INNER ITERATIONS.
    ------------------------------------------------

 NO OUTPUT CONTROL FOR STRESS PERIOD   11   TIME STEP   18
 
 SOLVING FOR HEAD 
                                                   Max.-Head-Change                         Max.-Flux-Residual
  Residual-Control   Outer-Iter.   Inner-Iter.     Column Row Layer    Maximum-Head-Change  Column Row Layer    Maximum-Flux-Residual          L2-NORM 
          0                 1           2             4    7     1       0.8440006933E-02       4    7    1         0.4450789667E+00      0.9759025033E+00
          0                 2           2             4    7     1      -0.8209840170E-03       4    7    1        -0.4450799771E-01      0.9567256174E-01
          0                 3           1             4    7     1       0.5590595344E-04       4    7    1         0.3115560223E-02      0.6723803289E-02

    ------------------------------------------------
       NWT REQUIRED            3 OUTER ITERATIONS 
       AND A TOTAL OF          5 INNER ITERATIONS.
    ------------------------------------------------

 NO OUTPUT CONTROL FOR STRESS PERIOD   11   TIME STEP   19
 
 SOLVING FOR HEAD 
                                                   Max.-Head-Change                         Max.-Flux-Residual
  Residual-Control   Outer-Iter.   Inner-Iter.     Column Row Layer    Maximum-Head-Change  Column Row Layer    Maximum-Flux-Residual          L2-NORM 
          0                 1           2             4    7     1       0.8322515483E-02       4    7    1         0.4388723395E+00      0.9615984590E+00
          0                 2           2             4    7     1      -0.8095552661E-03       4    7    1        -0.4388733253E-01      0.9422690450E-01
          0                 3           1             4    7     1       0.5512769764E-04       4    7    1         0.3072113645E-02      0.6623077166E-02

    ------------------------------------------------
       NWT REQUIRED            3 OUTER ITERATIONS 
       AND A TOTAL OF          5 INNER ITERATIONS.
    ------------------------------------------------

 NO OUTPUT CONTROL FOR STRESS PERIOD   11   TIME STEP   20
 
 SOLVING FOR HEAD 
                                                   Max.-Head-Change                         Max.-Flux-Residual
  Residual-Control   Outer-Iter.   Inner-Iter.     Column Row Layer    Maximum-Head-Change  Column Row Layer    Maximum-Flux-Residual          L2-NORM 
          0                 1           2             4    7     1       0.8206860022E-02       4    7    1         0.4327610946E+00      0.9477286456E+00
          0                 2           2             4    7     1      -0.7983051091E-03       4    7    1        -0.4327620569E-01      0.9282550647E-01
          0                 3           1             4    7     1       0.5436160496E-04       4    7    1         0.3029334812E-02      0.6524295527E-02

    ------------------------------------------------
       NWT REQUIRED            3 OUTER ITERATIONS 
       AND A TOTAL OF          5 INNER ITERATIONS.
    ------------------------------------------------

 NO OUTPUT CONTROL FOR STRESS PERIOD   11   TIME STEP   21
 
 SOLVING FOR HEAD 
                                                   Max.-Head-Change                         Max.-Flux-Residual
  Residual-Control   Outer-Iter.   Inner-Iter.     Column Row Layer    Maximum-Head-Change  Column Row Layer    Maximum-Flux-Residual          L2-NORM 
          0                 1           2             4    7     1       0.8093025302E-02       4    7    1         0.4267451160E+00      0.9342659626E+00
          0                 2           2             4    7     1      -0.7872320596E-03       4    7    1        -0.4267460546E-01      0.9146295710E-01
          0                 3           1             4    7     1       0.5360757149E-04       4    7    1         0.2987222782E-02      0.6429604754E-02

    ------------------------------------------------
       NWT REQUIRED            3 OUTER ITERATIONS 
       AND A TOTAL OF          5 INNER ITERATIONS.
    ------------------------------------------------

 NO OUTPUT CONTROL FOR STRESS PERIOD   11   TIME STEP   22
 
 SOLVING FOR HEAD 
                                                   Max.-Head-Change                         Max.-Flux-Residual
  Residual-Control   Outer-Iter.   Inner-Iter.     Column Row Layer    Maximum-Head-Change  Column Row Layer    Maximum-Flux-Residual          L2-NORM 
          0                 1           2             4    7     1       0.7980993562E-02       4    7    1         0.4208236124E+00      0.9211873381E+00
          0                 2           2             4    7     1      -0.7763343922E-03       4    7    1        -0.4208245281E-01      0.9013852256E-01
          0                 3           1             4    7     1       0.5286548103E-04       4    7    1         0.2945772092E-02      0.6336995238E-02

    ------------------------------------------------
       NWT REQUIRED            3 OUTER ITERATIONS 
       AND A TOTAL OF          5 INNER ITERATIONS.
    ------------------------------------------------

 NO OUTPUT CONTROL FOR STRESS PERIOD   11   TIME STEP   23
 
 SOLVING FOR HEAD 
                                                   Max.-Head-Change                         Max.-Flux-Residual
  Residual-Control   Outer-Iter.   Inner-Iter.     Column Row Layer    Maximum-Head-Change  Column Row Layer    Maximum-Flux-Residual          L2-NORM 
          0                 1           2             4    7     1       0.7871019238E-02       4    7    1         0.4150104729E+00      0.9084899669E+00
          0                 2           2             4    7     1      -0.7656368560E-03       4    7    1        -0.4150113660E-01      0.8885245380E-01
          0                 3           1             4    7     1       0.5213701868E-04       4    7    1         0.2905079963E-02      0.6247312939E-02

    ------------------------------------------------
       NWT REQUIRED            3 OUTER ITERATIONS 
       AND A TOTAL OF          5 INNER ITERATIONS.
    ------------------------------------------------

 NO OUTPUT CONTROL FOR STRESS PERIOD   11   TIME STEP   24
 
 SOLVING FOR HEAD 
                                                   Max.-Head-Change                         Max.-Flux-Residual
  Residual-Control   Outer-Iter.   Inner-Iter.     Column Row Layer    Maximum-Head-Change  Column Row Layer    Maximum-Flux-Residual          L2-NORM 
          0                 1           2             4    7     1       0.7762527349E-02       4    7    1         0.4092744676E+00      0.8961367556E+00
          0                 2           2             4    7     1      -0.7550835208E-03       4    7    1        -0.4092753383E-01      0.8760127785E-01
          0                 3           1             4    7     1       0.5141837615E-04       4    7    1         0.2864927785E-02      0.6160494118E-02

    ------------------------------------------------
       NWT REQUIRED            3 OUTER ITERATIONS 
       AND A TOTAL OF          5 INNER ITERATIONS.
    ------------------------------------------------

 NO OUTPUT CONTROL FOR STRESS PERIOD   11   TIME STEP   25
 
 SOLVING FOR HEAD 
                                                   Max.-Head-Change                         Max.-Flux-Residual
  Residual-Control   Outer-Iter.   Inner-Iter.     Column Row Layer    Maximum-Head-Change  Column Row Layer    Maximum-Flux-Residual          L2-NORM 
          0                 1           2             4    7     1       0.7656060586E-02       4    7    1         0.4036450050E+00      0.8841354861E+00
          0                 2           2             4    7     1      -0.7447266074E-03       4    7    1        -0.4036458541E-01      0.8639143078E-01
          0                 3           1             4    7     1       0.5071255610E-04       4    7    1         0.2825521376E-02      0.6074779475E-02

    ------------------------------------------------
       NWT REQUIRED            3 OUTER ITERATIONS 
       AND A TOTAL OF          5 INNER ITERATIONS.
    ------------------------------------------------

 NO OUTPUT CONTROL FOR STRESS PERIOD   11   TIME STEP   26
 
 SOLVING FOR HEAD 
                                                   Max.-Head-Change                         Max.-Flux-Residual
  Residual-Control   Outer-Iter.   Inner-Iter.     Column Row Layer    Maximum-Head-Change  Column Row Layer    Maximum-Flux-Residual          L2-NORM 
          0                 1           2             4    7     1       0.7551305715E-02       4    7    1         0.3981058103E+00      0.8724418248E+00
          0                 2           2             4    7     1      -0.7345817930E-03       4    7    1        -0.3981066381E-01      0.8527315244E-01
          0                 3           1             4    7     1       0.5002228502E-04       4    7    1         0.2786746885E-02      0.5998005535E-02

    ------------------------------------------------
       NWT REQUIRED            3 OUTER ITERATIONS 
       AND A TOTAL OF          5 INNER ITERATIONS.
    ------------------------------------------------

 NO OUTPUT CONTROL FOR STRESS PERIOD   11   TIME STEP   27
 
 SOLVING FOR HEAD 
                                                   Max.-Head-Change                         Max.-Flux-Residual
  Residual-Control   Outer-Iter.   Inner-Iter.     Column Row Layer    Maximum-Head-Change  Column Row Layer    Maximum-Flux-Residual          L2-NORM 
          0                 1           2             4    7     1       0.7448120729E-02       4    7    1         0.3926530812E+00      0.8610078217E+00
          0                 2           2             4    7     1      -0.7245002414E-03       4    7    1        -0.3926538890E-01      0.8404079534E-01
          0                 3           1             4    7     1       0.4933576899E-04       4    7    1         0.2748577640E-02      0.5912091851E-02

    ------------------------------------------------
       NWT REQUIRED            3 OUTER ITERATIONS 
       AND A TOTAL OF          5 INNER ITERATIONS.
    ------------------------------------------------

 NO OUTPUT CONTROL FOR STRESS PERIOD   11   TIME STEP   28
 
 SOLVING FOR HEAD 
                                                   Max.-Head-Change                         Max.-Flux-Residual
  Residual-Control   Outer-Iter.   Inner-Iter.     Column Row Layer    Maximum-Head-Change  Column Row Layer    Maximum-Flux-Residual          L2-NORM 
          0                 1           2             4    7     1       0.7346889077E-02       4    7    1         0.3873013473E+00      0.8498657843E+00
          0                 2           2             4    7     1      -0.7146531328E-03       4    7    1        -0.3873021354E-01      0.8291102173E-01
          0                 3           1             4    7     1       0.4866521799E-04       4    7    1         0.2711115371E-02      0.5833032332E-02

    ------------------------------------------------
       NWT REQUIRED            3 OUTER ITERATIONS 
       AND A TOTAL OF          5 INNER ITERATIONS.
    ------------------------------------------------

 NO OUTPUT CONTROL FOR STRESS PERIOD   11   TIME STEP   29
 
 SOLVING FOR HEAD 
                                                   Max.-Head-Change                         Max.-Flux-Residual
  Residual-Control   Outer-Iter.   Inner-Iter.     Column Row Layer    Maximum-Head-Change  Column Row Layer    Maximum-Flux-Residual          L2-NORM 
          0                 1           2             4    7     1       0.7247265087E-02       4    7    1         0.3820337938E+00      0.8390036437E+00
          0                 2           2             4    7     1      -0.7049624058E-03       4    7    1        -0.3820345623E-01      0.8180797123E-01
          0                 3           1             4    7     1       0.4800531540E-04       4    7    1         0.2674242345E-02      0.5755860826E-02

    ------------------------------------------------
       NWT REQUIRED            3 OUTER ITERATIONS 
       AND A TOTAL OF          5 INNER ITERATIONS.
    ------------------------------------------------

 NO OUTPUT CONTROL FOR STRESS PERIOD   11   TIME STEP   30



 STREAM LISTING     PERIOD     11   STEP       30

 LAYER ROW COL. STREAM  RCH.  FLOW INTO     FLOW TO   FLOW OUT OF   OVRLND.     DIRECT     STREAM       STREAM     STREAM     STREAM   STREAMBED  STREAMBED
                SEG.NO.  NO.  STRM. RCH.    AQUIFER    STRM. RCH.    RUNOFF     PRECIP       ET          HEAD       DEPTH      WIDTH   CONDCTNC.   GRADIENT

   1    1    1     1     1    3.5000E+01  2.8629E-01   3.4714E+01  0.000E+00  0.000E+00  0.000E+00  1.09434E+03  1.292E+00  1.482E+01  6.670E-02  1.431E+00
   1    2    2     1     2    3.4714E+01  4.4325E-01   3.4270E+01  0.000E+00  0.000E+00  0.000E+00  1.08935E+03  1.289E+00  1.476E+01  1.033E-01  1.430E+00
   1    3    3     1     3    3.4270E+01  3.7790E-01   3.3893E+01  0.000E+00  0.000E+00  0.000E+00  1.08370E+03  1.286E+00  1.470E+01  8.817E-02  1.429E+00
   1    3    4     1     4    3.3893E+01  3.4789E-01   3.3545E+01  0.000E+00  0.000E+00  0.000E+00  1.07869E+03  1.283E+00  1.464E+01  8.123E-02  1.428E+00
   1    4    5     2     1    3.1545E+01  3.4194E-01   3.1203E+01  0.000E+00  0.000E+00  0.000E+00  1.07332E+03  1.384E+00  1.200E+01  7.800E-02  1.461E+00
   1    5    6     2     2    3.1203E+01  2.6255E-01   3.0940E+01  0.000E+00  0.000E+00  0.000E+00  1.06789E+03  1.376E+00  1.200E+01  6.000E-02  1.459E+00
   1    6    6     2     3    3.0940E+01  2.6213E-01   3.0678E+01  0.000E+00  0.000E+00  0.000E+00  1.06316E+03  1.369E+00  1.200E+01  6.000E-02  1.456E+00
   1    7    6     2     4    3.0678E+01  2.6171E-01   3.0416E+01  0.000E+00  0.000E+00  0.000E+00  1.05844E+03  1.362E+00  1.200E+01  6.000E-02  1.454E+00
   1    8    6     2     5    3.0416E+01  2.6129E-01   3.0155E+01  0.000E+00  0.000E+00  0.000E+00  1.05371E+03  1.355E+00  1.200E+01  6.000E-02  1.452E+00
   1    3    5     3     1    2.0000E+00  2.8252E-01   1.7175E+00  0.000E+00  0.000E+00  0.000E+00  1.07555E+03  1.909E+00  9.636E+00  7.227E-02  1.955E+00
   1    3    6     3     2    1.7175E+00  2.4905E-01   1.4684E+00  0.000E+00  0.000E+00  0.000E+00  1.07264E+03  1.727E+00  8.909E+00  6.682E-02  1.864E+00
   1    3    7     3     3    1.4684E+00  1.9718E-01   1.2712E+00  0.000E+00  0.000E+00  0.000E+00  1.06987E+03  1.555E+00  8.218E+00  5.547E-02  1.777E+00
   1    4    8     3     4    1.2712E+00  2.2567E-01   1.0456E+00  0.000E+00  0.000E+00  0.000E+00  1.06682E+03  1.364E+00  7.455E+00  6.709E-02  1.682E+00
   1    5    8     3     5    1.0456E+00  1.5790E-01   8.8768E-01  0.000E+00  0.000E+00  0.000E+00  1.06362E+03  1.164E+00  6.655E+00  4.991E-02  1.582E+00
   1    6    8     3     6    8.8768E-01  5.5980E-02   8.3170E-01  0.000E+00  0.000E+00  0.000E+00  1.06158E+03  1.036E+00  6.145E+00  1.844E-02  1.518E+00
   1    5   10     4     1    1.0000E+01  9.0919E-02   9.9091E+00  0.000E+00  0.000E+00  0.000E+00  1.07836E+03  6.368E-01  1.000E+01  2.500E-02  1.212E+00
   1    5    9     4     2    9.9091E+00  1.8158E-01   9.7275E+00  0.000E+00  0.000E+00  0.000E+00  1.07154E+03  6.315E-01  1.000E+01  5.000E-02  1.211E+00
   1    6    8     4     3    9.7275E+00  1.2689E-01   9.6006E+00  0.000E+00  0.000E+00  0.000E+00  1.06381E+03  6.256E-01  1.000E+01  3.500E-02  1.209E+00
   1    6    8     5     1    1.0432E+01  2.2686E-01   1.0205E+01  0.000E+00  0.000E+00  0.000E+00  1.05868E+03  6.790E-01  1.542E+01  6.166E-02  1.226E+00
   1    7    7     5     2    1.0205E+01  2.7894E-01   9.9265E+00  0.000E+00  0.000E+00  0.000E+00  1.05417E+03  6.732E-01  1.519E+01  7.594E-02  1.224E+00
   1    8    7     5     3    9.9265E+00  1.9221E-01   9.7343E+00  0.000E+00  0.000E+00  0.000E+00  1.04992E+03  6.676E-01  1.497E+01  5.241E-02  1.223E+00
   1    8    6     5     4    9.7343E+00  1.3577E-01   9.5985E+00  0.000E+00  0.000E+00  0.000E+00  1.04691E+03  6.637E-01  1.482E+01  3.706E-02  1.221E+00
   1    9    6     6     1    3.9754E+01  2.7657E-01   3.9477E+01  0.000E+00  0.000E+00  0.000E+00  1.04434E+03  1.609E+00  1.200E+01  6.000E-02  1.536E+00
   1   10    7     6     2    3.9477E+01  2.7616E-01   3.9201E+01  0.000E+00  0.000E+00  0.000E+00  1.03978E+03  1.603E+00  1.200E+01  6.000E-02  1.534E+00
   1   11    7     6     3    3.9201E+01  2.7576E-01   3.8925E+01  0.000E+00  0.000E+00  0.000E+00  1.03523E+03  1.596E+00  1.200E+01  6.000E-02  1.532E+00
   1   12    7     6     4    3.8925E+01  2.7535E-01   3.8650E+01  0.000E+00  0.000E+00  0.000E+00  1.03068E+03  1.589E+00  1.200E+01  6.000E-02  1.530E+00
   1   13    7     6     5    3.8650E+01  9.1943E-03   3.8641E+01  0.000E+00  0.000E+00  0.000E+00  1.02749E+03  1.586E+00  1.200E+01  2.400E-02  1.277E-01
   1   14    9     7     1    1.5000E+02  1.3338E+00   1.4867E+02  0.000E+00  0.000E+00  0.000E+00  1.03987E+03  2.288E+00  5.529E+01  5.593E-01  7.949E-01
   1   13    8     7     2    1.4867E+02  1.8246E+00   1.4684E+02  0.000E+00  0.000E+00  0.000E+00  1.03478E+03  2.279E+00  5.526E+01  6.148E-01  9.893E-01
   1   13    7     7     3    1.4684E+02  1.4398E+00   1.4540E+02  0.000E+00  0.000E+00  0.000E+00  1.02969E+03  2.271E+00  5.522E+01  5.585E-01  8.594E-01
   1   13    6     8     1    1.8404E+02  9.6109E-01   1.8308E+02  0.000E+00  0.000E+00  0.000E+00  1.02491E+03  3.038E+00  4.406E+01  4.490E-01  7.136E-01
   1   13    5     8     2    1.8308E+02  1.9930E-01   1.8288E+02  0.000E+00  0.000E+00  0.000E+00  1.01866E+03  3.035E+00  4.400E+01  4.484E-01  1.481E-01
   1   13    4     8     3    1.8288E+02 -2.4532E+00   1.8534E+02  0.000E+00  0.000E+00  0.000E+00  1.01242E+03  3.042E+00  4.411E+01  4.495E+00 -1.819E-01
   1   13    3     8     4    1.8534E+02 -3.6596E+00   1.8899E+02  0.000E+00  0.000E+00  0.000E+00  1.00619E+03  3.061E+00  4.438E+01  4.522E+00 -2.697E-01
   1   13    2     8     5    1.8899E+02 -2.5495E+00   1.9154E+02  0.000E+00  0.000E+00  0.000E+00  9.99955E+02  3.080E+00  4.465E+01  4.550E+00 -1.868E-01
   1   13    1     8     6    1.9154E+02 -1.9023E+00   1.9345E+02  0.000E+00  0.000E+00  0.000E+00  9.94968E+02  3.093E+00  4.485E+01  2.742E+00 -2.312E-01
   1    8    6     9     1    0.0000E+00  0.0000E+00   0.0000E+00  0.000E+00  0.000E+00  0.000E+00  1.07875E+03  0.000E+00  4.000E+00  0.000E+00  1.000E+00
   1    8    5     9     2    0.0000E+00  0.0000E+00   0.0000E+00  0.000E+00  0.000E+00  0.000E+00  1.07825E+03  0.000E+00  4.000E+00  0.000E+00  1.000E+00





UNSATURATED ZONE PACKAGE VOLUMETRIC BUDGET FOR  TIME STEP    30 STRESS PERIOD   11
  ------------------------------------------------------------------------------



     CUMULATIVE VOLUMES      L**3       RATES FOR THIS TIME STEP      L**3/T
     ------------------                 ------------------------

           IN:                                      IN:
           ---                                      ---
        INFILTRATION =   174265272.2375          INFILTRATION =           0.8475

          OUT:                                     OUT:
          ----                                     ----
              UZF ET =    94020995.6340                UZF ET =           0.2246
        UZF RECHARGE =     8514940.3717          UZF RECHARGE =           0.0965

            IN - OUT =    71729336.2318              IN - OUT =           0.5264

          STORAGE:                                 STORAGE:
          --------                                 --------
      STORAGE CHANGE =    71803055.1128        STORAGE CHANGE =           0.5264

 PERCENT DISCREPANCY IS DIFFERENCE BETWEEN IN-OUT MINUS CHANGE IN STORAGE
 DIVIDED BY THE AVERAGE OF IN AND OUT TIMES 100

 PERCENT DISCREPANCY =          -0.01     PERCENT DISCREPANCY =           0.00






1
  VOLUMETRIC BUDGET FOR ENTIRE MODEL AT END OF TIME STEP   30, STRESS PERIOD  11
  ------------------------------------------------------------------------------

     CUMULATIVE VOLUMES      L**3       RATES FOR THIS TIME STEP      L**3/T
     ------------------                 ------------------------

           IN:                                      IN:
           ---                                      ---
               AWU WELLS =    83320120.0000                 AWU WELLS =           0.0000
      DIVERSION SEGMENTS =    68598824.0000        DIVERSION SEGMENTS =           0.0000
           GW IRRIGATION =           0.0000             GW IRRIGATION =           0.0000
           SW IRRIGATION =           0.0000             SW IRRIGATION =           0.0000
        SYSTEM LOSSES GW =           0.0000          SYSTEM LOSSES GW =           0.0000
        SYSTEM LOSSES SW =           0.0000          SYSTEM LOSSES SW =           0.0000

                TOTAL IN =   151918944.0000                  TOTAL IN =           0.0000

          OUT:                                     OUT:
          ----                                     ----
               AWU WELLS =           0.0000                 AWU WELLS =           0.0000
      DIVERSION SEGMENTS =           0.0000        DIVERSION SEGMENTS =           0.0000
           GW IRRIGATION =    83320120.0000             GW IRRIGATION =           0.0000
           SW IRRIGATION =    68600184.0000             SW IRRIGATION =           0.0000
        SYSTEM LOSSES GW =           0.0000          SYSTEM LOSSES GW =           0.0000
        SYSTEM LOSSES SW =           0.0000          SYSTEM LOSSES SW =           0.0000

               TOTAL OUT =   151920304.0000                 TOTAL OUT =           0.0000

                IN - OUT =       -1360.0000                  IN - OUT =           0.0000

     PERCENT DISCREPANCY =          -0.00         PERCENT DISCREPANCY =           0.00



1
  VOLUMETRIC BUDGET FOR ENTIRE MODEL AT END OF TIME STEP   30, STRESS PERIOD  11
  ------------------------------------------------------------------------------

     CUMULATIVE VOLUMES      L**3       RATES FOR THIS TIME STEP      L**3/T
     ------------------                 ------------------------

           IN:                                      IN:
           ---                                      ---
             STORAGE     =   152587936.0000               STORAGE     =           1.7217
       CONSTANT HEAD     =           0.0000         CONSTANT HEAD     =           0.0000
     HEAD DEP BOUNDS     =     7533020.0000       HEAD DEP BOUNDS     =           0.2856
      STREAM LEAKAGE     =   339520256.0000        STREAM LEAKAGE     =          12.1181
        UZF RECHARGE     =     8514937.0000          UZF RECHARGE     =       9.6491E-02
               GW ET     =           0.0000                 GW ET     =           0.0000
     SURFACE LEAKAGE     =           0.0000       SURFACE LEAKAGE     =           0.0000
           AWU WELLS     =           0.0000             AWU WELLS     =           0.0000

                TOTAL IN =   508156160.0000                  TOTAL IN =          14.2219

          OUT:                                     OUT:
          ----                                     ----
             STORAGE     =   120847680.0000               STORAGE     =           3.2647
       CONSTANT HEAD     =           0.0000         CONSTANT HEAD     =           0.0000
     HEAD DEP BOUNDS     =     7639502.0000       HEAD DEP BOUNDS     =           0.2911
      STREAM LEAKAGE     =   241583264.0000        STREAM LEAKAGE     =          10.5646
        UZF RECHARGE     =           0.0000          UZF RECHARGE     =           0.0000
               GW ET     =    54774528.0000                 GW ET     =           0.1018
     SURFACE LEAKAGE     =           0.0000       SURFACE LEAKAGE     =           0.0000
           AWU WELLS     =    83320120.0000             AWU WELLS     =           0.0000

               TOTAL OUT =   508165120.0000                 TOTAL OUT =          14.2222

                IN - OUT =       -8960.0000                  IN - OUT =      -2.4986E-04

     PERCENT DISCREPANCY =          -0.00         PERCENT DISCREPANCY =          -0.00






         TIME SUMMARY AT END OF TIME STEP   30 IN STRESS PERIOD   11
                    SECONDS     MINUTES      HOURS       DAYS        YEARS
                    -----------------------------------------------------------
   TIME STEP LENGTH  87600.      1460.0      24.333      1.0139     2.77588E-03
 STRESS PERIOD TIME 2.62800E+06  43800.      730.00      30.417     8.32763E-02
         TOTAL TIME 2.63664E+07 4.39440E+05  7324.0      305.17     0.83550    
1
1
                            STRESS PERIOD NO.   12, LENGTH =   2628000.    
                            -----------------------------------------------

                              NUMBER OF TIME STEPS =    30

                               MULTIPLIER FOR DELT =     1.000

                            INITIAL TIME STEP SIZE =   87600.00    

 REUSING NON-PARAMETER GHB CELLS FROM LAST STRESS PERIOD

      2 GHB CELLS

 REUSING STREAM SEGMENT DATA FROM LAST STRESS PERIOD



            AREAL INFILTRATION RATE
 READING ON UNIT   19 WITH FORMAT: (10F4.0)            

            1           2           3           4           5           6           7           8           9          10
 ........................................................................................................................
   1   1.0000E-10  2.0000E-10   0.000       0.000       0.000       0.000       0.000       0.000       0.000       0.000    
   2   2.0000E-10  1.0000E-10  2.0000E-10   0.000       0.000      8.0000E-10  8.0000E-10  5.0000E-10   0.000       0.000    
   3    0.000      5.0000E-10  1.0000E-10  1.0000E-10  8.0000E-10  8.0000E-10  5.0000E-10  5.0000E-10   0.000       0.000    
   4   8.0000E-10  5.0000E-10  1.0000E-10  1.0000E-10  1.0000E-10  1.0000E-10  1.0000E-10  1.0000E-10  2.0000E-10   0.000    
   5   8.0000E-10  5.0000E-10  1.0000E-10  1.0000E-10  1.0000E-10  1.0000E-10  1.0000E-10  1.0000E-10  1.0000E-10  1.0000E-10
   6   8.0000E-10  5.0000E-10  5.0000E-10  2.0000E-10  2.0000E-10  1.0000E-10  1.0000E-10  1.0000E-10  1.0000E-10  5.0000E-10
   7   8.0000E-10  5.0000E-10  5.0000E-10  2.0000E-10  2.0000E-10  1.0000E-10  1.0000E-10  2.0000E-10  2.0000E-10   0.000    
   8    0.000      5.0000E-10  5.0000E-10  2.0000E-10  2.0000E-10  1.0000E-10  1.0000E-10  2.0000E-10  5.0000E-10   0.000    
   9    0.000      5.0000E-10  5.0000E-10  2.0000E-10  2.0000E-10  1.0000E-10  1.0000E-10  2.0000E-10  5.0000E-10   0.000    
  10    0.000      5.0000E-10  5.0000E-10  2.0000E-10  2.0000E-10  1.0000E-10  1.0000E-10  2.0000E-10  5.0000E-10  8.0000E-10
  11    0.000      1.0000E-10  1.0000E-10  1.0000E-10  1.0000E-10  1.0000E-10  1.0000E-10  2.0000E-10  5.0000E-10   0.000    
  12   1.0000E-10  1.0000E-10  1.0000E-10  1.0000E-10  1.0000E-10  1.0000E-10  1.0000E-10  1.0000E-10  2.0000E-10   0.000    
  13   1.0000E-10  1.0000E-10  2.0000E-10  2.0000E-10  2.0000E-10  2.0000E-10  2.0000E-10  1.0000E-10  1.0000E-10   0.000    
  14    0.000      2.0000E-10  5.0000E-10  5.0000E-10  5.0000E-10  5.0000E-10  5.0000E-10  2.0000E-10  1.0000E-10   0.000    
  15    0.000       0.000      8.0000E-10  8.0000E-10  8.0000E-10  8.0000E-10   0.000       0.000       0.000       0.000    

                  ET RATE =  1.000000E-10

 USING ET EXTINCTION DEPTH FROM PREVIOUS STRESS PERIOD. CURRENT PERIOD IS:      12

 USING EXTINCTION WATER CONTENT FROM PREVIOUS STRESS PERIOD. CURRENT PERIOD IS:      12

 PROCESSING AWU STRESS PERIOD DATA

 READING AWU STRESS PERIOD DATA

 READING IRRIGATION STREAM

 READING IRRIGATION WELL

 READING SUPPLEMENTAL WEL

 END PROCESSING AWU STRESS PERIOD DATA OPTIONS
 
 SOLVING FOR HEAD 
                                                   Max.-Head-Change                         Max.-Flux-Residual
  Residual-Control   Outer-Iter.   Inner-Iter.     Column Row Layer    Maximum-Head-Change  Column Row Layer    Maximum-Flux-Residual          L2-NORM 
          0                 1           2             4    7     1       0.7149196152E-02       4    7    1         0.3768496589E+00      0.8362161547E+00
          0                 2           2             4    7     1      -0.6954229446E-03       4    7    1        -0.3768504086E-01      0.8186388536E-01
          0                 3           1             4    7     1       0.4735571401E-04       4    7    1         0.2637953279E-02      0.5757639671E-02

    ------------------------------------------------
       NWT REQUIRED            3 OUTER ITERATIONS 
       AND A TOTAL OF          5 INNER ITERATIONS.
    ------------------------------------------------

 NO OUTPUT CONTROL FOR STRESS PERIOD   12   TIME STEP    1
 
 SOLVING FOR HEAD 
                                                   Max.-Head-Change                         Max.-Flux-Residual
  Residual-Control   Outer-Iter.   Inner-Iter.     Column Row Layer    Maximum-Head-Change  Column Row Layer    Maximum-Flux-Residual          L2-NORM 
          0                 1           2             4    7     1       0.7052640590E-02       4    7    1         0.3717462124E+00      0.8505959207E+00
          0                 2           2             4    7     1      -0.6860306938E-03       4    7    1        -0.3717469436E-01      0.8327881291E-01
          0                 3           1             4    7     1       0.4671613691E-04       4    7    1         0.2602229045E-02      0.5843401513E-02

    ------------------------------------------------
       NWT REQUIRED            3 OUTER ITERATIONS 
       AND A TOTAL OF          5 INNER ITERATIONS.
    ------------------------------------------------

 NO OUTPUT CONTROL FOR STRESS PERIOD   12   TIME STEP    2
 
 SOLVING FOR HEAD 
                                                   Max.-Head-Change                         Max.-Flux-Residual
  Residual-Control   Outer-Iter.   Inner-Iter.     Column Row Layer    Maximum-Head-Change  Column Row Layer    Maximum-Flux-Residual          L2-NORM 
          0                 1           2             4    7     1       0.6957583492E-02       4    7    1         0.3667212917E+00      0.8344538895E+00
          0                 2           2             4    7     1      -0.6767842032E-03       4    7    1        -0.3667220047E-01      0.8167984528E-01
          0                 3           1             4    7     1       0.4608648519E-04       4    7    1         0.2567054461E-02      0.5733560624E-02

    ------------------------------------------------
       NWT REQUIRED            3 OUTER ITERATIONS 
       AND A TOTAL OF          5 INNER ITERATIONS.
    ------------------------------------------------

 NO OUTPUT CONTROL FOR STRESS PERIOD   12   TIME STEP    3
 
 SOLVING FOR HEAD 
                                                   Max.-Head-Change                         Max.-Flux-Residual
  Residual-Control   Outer-Iter.   Inner-Iter.     Column Row Layer    Maximum-Head-Change  Column Row Layer    Maximum-Flux-Residual          L2-NORM 
          0                 1           2             4    7     1       0.6864281344E-02       4    7    1         0.3617889366E+00      0.8194234168E+00
          0                 2           2             4    7     1      -0.6677084224E-03       4    7    1        -0.3617896320E-01      0.8019242303E-01
          0                 3           1             4    7     1       0.4546845862E-04       4    7    1         0.2532527871E-02      0.5631458617E-02

    ------------------------------------------------
       NWT REQUIRED            3 OUTER ITERATIONS 
       AND A TOTAL OF          5 INNER ITERATIONS.
    ------------------------------------------------

 NO OUTPUT CONTROL FOR STRESS PERIOD   12   TIME STEP    4
 
 SOLVING FOR HEAD 
                                                   Max.-Head-Change                         Max.-Flux-Residual
  Residual-Control   Outer-Iter.   Inner-Iter.     Column Row Layer    Maximum-Head-Change  Column Row Layer    Maximum-Flux-Residual          L2-NORM 
          0                 1           2             4    7     1       0.6772429175E-02       4    7    1         0.3569328298E+00      0.8053970867E+00
          0                 2           2             4    7     1      -0.6587736850E-03       4    7    1        -0.3569335079E-01      0.7880291816E-01
          0                 3           1             4    7     1       0.4486003625E-04       4    7    1         0.2498534983E-02      0.5535933810E-02

    ------------------------------------------------
       NWT REQUIRED            3 OUTER ITERATIONS 
       AND A TOTAL OF          5 INNER ITERATIONS.
    ------------------------------------------------

 NO OUTPUT CONTROL FOR STRESS PERIOD   12   TIME STEP    5
 
 SOLVING FOR HEAD 
                                                   Max.-Head-Change                         Max.-Flux-Residual
  Residual-Control   Outer-Iter.   Inner-Iter.     Column Row Layer    Maximum-Head-Change  Column Row Layer    Maximum-Flux-Residual          L2-NORM 
          0                 1           2             4    7     1       0.6682284021E-02       4    7    1         0.3521667731E+00      0.7922515147E+00
          0                 2           2             4    7     1      -0.6500049944E-03       4    7    1        -0.3521674342E-01      0.7750044052E-01
          0                 3           1             4    7     1       0.4426292142E-04       4    7    1         0.2465172475E-02      0.5447059156E-02

    ------------------------------------------------
       NWT REQUIRED            3 OUTER ITERATIONS 
       AND A TOTAL OF          5 INNER ITERATIONS.
    ------------------------------------------------

 NO OUTPUT CONTROL FOR STRESS PERIOD   12   TIME STEP    6
 
 SOLVING FOR HEAD 
                                                   Max.-Head-Change                         Max.-Flux-Residual
  Residual-Control   Outer-Iter.   Inner-Iter.     Column Row Layer    Maximum-Head-Change  Column Row Layer    Maximum-Flux-Residual          L2-NORM 
          0                 1           2             4    7     1       0.6593547099E-02       4    7    1         0.3474744771E+00      0.7798771380E+00
          0                 2           2             4    7     1      -0.6413732875E-03       4    7    1        -0.3474751219E-01      0.7627345179E-01
          0                 3           1             4    7     1       0.4367513412E-04       4    7    1         0.2432326287E-02      0.5362606453E-02

    ------------------------------------------------
       NWT REQUIRED            3 OUTER ITERATIONS 
       AND A TOTAL OF          5 INNER ITERATIONS.
    ------------------------------------------------

 NO OUTPUT CONTROL FOR STRESS PERIOD   12   TIME STEP    7
 
 SOLVING FOR HEAD 
                                                   Max.-Head-Change                         Max.-Flux-Residual
  Residual-Control   Outer-Iter.   Inner-Iter.     Column Row Layer    Maximum-Head-Change  Column Row Layer    Maximum-Flux-Residual          L2-NORM 
          0                 1           2             4    7     1       0.6506196795E-02       4    7    1         0.3428552517E+00      0.7681857795E+00
          0                 2           2             4    7     1      -0.6328764609E-03       4    7    1        -0.3428558802E-01      0.7511413926E-01
          0                 3           1             4    7     1       0.4309653234E-04       4    7    1         0.2399991609E-02      0.5283146723E-02

    ------------------------------------------------
       NWT REQUIRED            3 OUTER ITERATIONS 
       AND A TOTAL OF          5 INNER ITERATIONS.
    ------------------------------------------------

 NO OUTPUT CONTROL FOR STRESS PERIOD   12   TIME STEP    8
 
 SOLVING FOR HEAD 
                                                   Max.-Head-Change                         Max.-Flux-Residual
  Residual-Control   Outer-Iter.   Inner-Iter.     Column Row Layer    Maximum-Head-Change  Column Row Layer    Maximum-Flux-Residual          L2-NORM 
          0                 1           2             4    7     1       0.6420215957E-02       4    7    1         0.3383079753E+00      0.7570856243E+00
          0                 2           2             4    7     1      -0.6245128459E-03       4    7    1        -0.3383085877E-01      0.7401145850E-01
          0                 3           1             4    7     1       0.4252700107E-04       4    7    1         0.2368160554E-02      0.5206311885E-02

    ------------------------------------------------
       NWT REQUIRED            3 OUTER ITERATIONS 
       AND A TOTAL OF          5 INNER ITERATIONS.
    ------------------------------------------------

 NO OUTPUT CONTROL FOR STRESS PERIOD   12   TIME STEP    9
 
 SOLVING FOR HEAD 
                                                   Max.-Head-Change                         Max.-Flux-Residual
  Residual-Control   Outer-Iter.   Inner-Iter.     Column Row Layer    Maximum-Head-Change  Column Row Layer    Maximum-Flux-Residual          L2-NORM 
          0                 1           2             4    7     1       0.6335859355E-02       4    7    1         0.3338465723E+00      0.7465217649E+00
          0                 2           2             4    7     1      -0.6163072263E-03       4    7    1        -0.3338471694E-01      0.7296026905E-01
          0                 3           1             4    7     1       0.4196822920E-04       4    7    1         0.2336930629E-02      0.5133060025E-02

    ------------------------------------------------
       NWT REQUIRED            3 OUTER ITERATIONS 
       AND A TOTAL OF          5 INNER ITERATIONS.
    ------------------------------------------------

 NO OUTPUT CONTROL FOR STRESS PERIOD   12   TIME STEP   10
 
 SOLVING FOR HEAD 
                                                   Max.-Head-Change                         Max.-Flux-Residual
  Residual-Control   Outer-Iter.   Inner-Iter.     Column Row Layer    Maximum-Head-Change  Column Row Layer    Maximum-Flux-Residual          L2-NORM 
          0                 1           2             4    7     1       0.6252826157E-02       4    7    1         0.3294546337E+00      0.7364275327E+00
          0                 2           2             4    7     1      -0.6082303381E-03       4    7    1        -0.3294552158E-01      0.7195530813E-01
          0                 3           1             4    7     1       0.4141822348E-04       4    7    1         0.2306186970E-02      0.5063001500E-02

    ------------------------------------------------
       NWT REQUIRED            3 OUTER ITERATIONS 
       AND A TOTAL OF          5 INNER ITERATIONS.
    ------------------------------------------------

 NO OUTPUT CONTROL FOR STRESS PERIOD   12   TIME STEP   11
 
 SOLVING FOR HEAD 
                                                   Max.-Head-Change                         Max.-Flux-Residual
  Residual-Control   Outer-Iter.   Inner-Iter.     Column Row Layer    Maximum-Head-Change  Column Row Layer    Maximum-Flux-Residual          L2-NORM 
          0                 1           2             4    7     1       0.6171364354E-02       4    7    1         0.3251461787E+00      0.7267599158E+00
          0                 2           2             4    7     1      -0.6003063041E-03       4    7    1        -0.3251467462E-01      0.7099274284E-01
          0                 3           1             4    7     1       0.4087862593E-04       4    7    1         0.2276027660E-02      0.4995934140E-02

    ------------------------------------------------
       NWT REQUIRED            3 OUTER ITERATIONS 
       AND A TOTAL OF          5 INNER ITERATIONS.
    ------------------------------------------------

 NO OUTPUT CONTROL FOR STRESS PERIOD   12   TIME STEP   12
 
 SOLVING FOR HEAD 
                                                   Max.-Head-Change                         Max.-Flux-Residual
  Residual-Control   Outer-Iter.   Inner-Iter.     Column Row Layer    Maximum-Head-Change  Column Row Layer    Maximum-Flux-Residual          L2-NORM 
          0                 1           2             4    7     1       0.6091170845E-02       4    7    1         0.3209044460E+00      0.7174677005E+00
          0                 2           2             4    7     1      -0.5925056414E-03       4    7    1        -0.3209049992E-01      0.7006709351E-01
          0                 3           1             4    7     1       0.4034743005E-04       4    7    1         0.2246335437E-02      0.4932059246E-02

    ------------------------------------------------
       NWT REQUIRED            3 OUTER ITERATIONS 
       AND A TOTAL OF          5 INNER ITERATIONS.
    ------------------------------------------------

 NO OUTPUT CONTROL FOR STRESS PERIOD   12   TIME STEP   13
 
 SOLVING FOR HEAD 
                                                   Max.-Head-Change                         Max.-Flux-Residual
  Residual-Control   Outer-Iter.   Inner-Iter.     Column Row Layer    Maximum-Head-Change  Column Row Layer    Maximum-Flux-Residual          L2-NORM 
          0                 1           2             4    7     1       0.6012232706E-02       4    7    1         0.3167285226E+00      0.7085216182E+00
          0                 2           2             4    7     1      -0.5848270920E-03       4    7    1        -0.3167290616E-01      0.6917635507E-01
          0                 3           1             4    7     1       0.3982454945E-04       4    7    1         0.2217103879E-02      0.4870741238E-02

    ------------------------------------------------
       NWT REQUIRED            3 OUTER ITERATIONS 
       AND A TOTAL OF          5 INNER ITERATIONS.
    ------------------------------------------------

 NO OUTPUT CONTROL FOR STRESS PERIOD   12   TIME STEP   14
 
 SOLVING FOR HEAD 
                                                   Max.-Head-Change                         Max.-Flux-Residual
  Residual-Control   Outer-Iter.   Inner-Iter.     Column Row Layer    Maximum-Head-Change  Column Row Layer    Maximum-Flux-Residual          L2-NORM 
          0                 1           2             4    7     1       0.5934803002E-02       4    7    1         0.3126325534E+00      0.6998959688E+00
          0                 2           2             4    7     1      -0.5772952733E-03       4    7    1        -0.3126330789E-01      0.6831631432E-01
          0                 3           1             4    7     1       0.3931166072E-04       4    7    1         0.2188432013E-02      0.4810966013E-02

    ------------------------------------------------
       NWT REQUIRED            3 OUTER ITERATIONS 
       AND A TOTAL OF          5 INNER ITERATIONS.
    ------------------------------------------------

 NO OUTPUT CONTROL FOR STRESS PERIOD   12   TIME STEP   15
 
 SOLVING FOR HEAD 
                                                   Max.-Head-Change                         Max.-Flux-Residual
  Residual-Control   Outer-Iter.   Inner-Iter.     Column Row Layer    Maximum-Head-Change  Column Row Layer    Maximum-Flux-Residual          L2-NORM 
          0                 1           2             4    7     1       0.5858575747E-02       4    7    1         0.3086000389E+00      0.6915484302E+00
          0                 2           2             4    7     1      -0.5698804203E-03       4    7    1        -0.3086005512E-01      0.6748509921E-01
          0                 3           1             4    7     1       0.3880673699E-04       4    7    1         0.2160204304E-02      0.4753007851E-02

    ------------------------------------------------
       NWT REQUIRED            3 OUTER ITERATIONS 
       AND A TOTAL OF          5 INNER ITERATIONS.
    ------------------------------------------------

 NO OUTPUT CONTROL FOR STRESS PERIOD   12   TIME STEP   16
 
 SOLVING FOR HEAD 
                                                   Max.-Head-Change                         Max.-Flux-Residual
  Residual-Control   Outer-Iter.   Inner-Iter.     Column Row Layer    Maximum-Head-Change  Column Row Layer    Maximum-Flux-Residual          L2-NORM 
          0                 1           2             4    7     1       0.5783802437E-02       4    7    1         0.3046447328E+00      0.6834574774E+00
          0                 2           2             4    7     1      -0.5626069971E-03       4    7    1        -0.3046452323E-01      0.6667986506E-01
          0                 3           1             4    7     1       0.3831144421E-04       4    7    1         0.2132517078E-02      0.4696767110E-02

    ------------------------------------------------
       NWT REQUIRED            3 OUTER ITERATIONS 
       AND A TOTAL OF          5 INNER ITERATIONS.
    ------------------------------------------------

 NO OUTPUT CONTROL FOR STRESS PERIOD   12   TIME STEP   17
 
 SOLVING FOR HEAD 
                                                   Max.-Head-Change                         Max.-Flux-Residual
  Residual-Control   Outer-Iter.   Inner-Iter.     Column Row Layer    Maximum-Head-Change  Column Row Layer    Maximum-Flux-Residual          L2-NORM 
          0                 1           2             4    7     1       0.5710185248E-02       4    7    1         0.3007500537E+00      0.6756131338E+00
          0                 2           2             4    7     1      -0.5554460334E-03       4    7    1        -0.3007505405E-01      0.6590103155E-01
          0                 3           1             4    7     1       0.3782380899E-04       4    7    1         0.2105254231E-02      0.4642550023E-02

    ------------------------------------------------
       NWT REQUIRED            3 OUTER ITERATIONS 
       AND A TOTAL OF          5 INNER ITERATIONS.
    ------------------------------------------------

 NO OUTPUT CONTROL FOR STRESS PERIOD   12   TIME STEP   18
 
 SOLVING FOR HEAD 
                                                   Max.-Head-Change                         Max.-Flux-Residual
  Residual-Control   Outer-Iter.   Inner-Iter.     Column Row Layer    Maximum-Head-Change  Column Row Layer    Maximum-Flux-Residual          L2-NORM 
          0                 1           2             4    7     1       0.5637700689E-02       4    7    1         0.2969153636E+00      0.6679710683E+00
          0                 2           2             4    7     1      -0.5483952440E-03       4    7    1        -0.2969158380E-01      0.6513635110E-01
          0                 3           1             4    7     1       0.3734367702E-04       4    7    1         0.2078411327E-02      0.4589210737E-02

    ------------------------------------------------
       NWT REQUIRED            3 OUTER ITERATIONS 
       AND A TOTAL OF          5 INNER ITERATIONS.
    ------------------------------------------------

 NO OUTPUT CONTROL FOR STRESS PERIOD   12   TIME STEP   19
 
 SOLVING FOR HEAD 
                                                   Max.-Head-Change                         Max.-Flux-Residual
  Residual-Control   Outer-Iter.   Inner-Iter.     Column Row Layer    Maximum-Head-Change  Column Row Layer    Maximum-Flux-Residual          L2-NORM 
          0                 1           2             4    7     1       0.5566605729E-02       4    7    1         0.2931542596E+00      0.6605389924E+00
          0                 2           2             4    7     1      -0.5414796255E-03       4    7    1        -0.2931547221E-01      0.6439204093E-01
          0                 3           1             4    7     1       0.3687274928E-04       4    7    1         0.2052083515E-02      0.4537261127E-02

    ------------------------------------------------
       NWT REQUIRED            3 OUTER ITERATIONS 
       AND A TOTAL OF          5 INNER ITERATIONS.
    ------------------------------------------------

 NO OUTPUT CONTROL FOR STRESS PERIOD   12   TIME STEP   20
 
 SOLVING FOR HEAD 
                                                   Max.-Head-Change                         Max.-Flux-Residual
  Residual-Control   Outer-Iter.   Inner-Iter.     Column Row Layer    Maximum-Head-Change  Column Row Layer    Maximum-Flux-Residual          L2-NORM 
          0                 1           2             4    7     1       0.5496871998E-02       4    7    1         0.2894652596E+00      0.6533063235E+00
          0                 2           2             4    7     1      -0.5346964179E-03       4    7    1        -0.2894657106E-01      0.6366797565E-01
          0                 3           1             4    7     1       0.3641083784E-04       4    7    1         0.2026260425E-02      0.4486772913E-02

    ------------------------------------------------
       NWT REQUIRED            3 OUTER ITERATIONS 
       AND A TOTAL OF          5 INNER ITERATIONS.
    ------------------------------------------------

 NO OUTPUT CONTROL FOR STRESS PERIOD   12   TIME STEP   21
 
 SOLVING FOR HEAD 
                                                   Max.-Head-Change                         Max.-Flux-Residual
  Residual-Control   Outer-Iter.   Inner-Iter.     Column Row Layer    Maximum-Head-Change  Column Row Layer    Maximum-Flux-Residual          L2-NORM 
          0                 1           2             4    7     1       0.5428191262E-02       4    7    1         0.2858320750E+00      0.6462448350E+00
          0                 2           2             4    7     1      -0.5280156385E-03       4    7    1        -0.2858325147E-01      0.6296105609E-01
          0                 3           1             4    7     1       0.3595590187E-04       4    7    1         0.2000828057E-02      0.4436647870E-02

    ------------------------------------------------
       NWT REQUIRED            3 OUTER ITERATIONS 
       AND A TOTAL OF          5 INNER ITERATIONS.
    ------------------------------------------------

 NO OUTPUT CONTROL FOR STRESS PERIOD   12   TIME STEP   22
 
 SOLVING FOR HEAD 
                                                   Max.-Head-Change                         Max.-Flux-Residual
  Residual-Control   Outer-Iter.   Inner-Iter.     Column Row Layer    Maximum-Head-Change  Column Row Layer    Maximum-Flux-Residual          L2-NORM 
          0                 1           2             4    7     1       0.5360548261E-02       4    7    1         0.2822535282E+00      0.6393445685E+00
          0                 2           2             4    7     1      -0.5214358025E-03       4    7    1        -0.2822539568E-01      0.6227066546E-01
          0                 3           1             4    7     1       0.3550783937E-04       4    7    1         0.1975778144E-02      0.4387884669E-02

    ------------------------------------------------
       NWT REQUIRED            3 OUTER ITERATIONS 
       AND A TOTAL OF          5 INNER ITERATIONS.
    ------------------------------------------------

 NO OUTPUT CONTROL FOR STRESS PERIOD   12   TIME STEP   23
 
 SOLVING FOR HEAD 
                                                   Max.-Head-Change                         Max.-Flux-Residual
  Residual-Control   Outer-Iter.   Inner-Iter.     Column Row Layer    Maximum-Head-Change  Column Row Layer    Maximum-Flux-Residual          L2-NORM 
          0                 1           2             4    7     1       0.5294199700E-02       4    7    1         0.2787436444E+00      0.6326126490E+00
          0                 2           2             4    7     1      -0.5149818805E-03       4    7    1        -0.2787440621E-01      0.6159591767E-01
          0                 3           1             4    7     1       0.3506835155E-04       4    7    1         0.1951208877E-02      0.4341283504E-02

    ------------------------------------------------
       NWT REQUIRED            3 OUTER ITERATIONS 
       AND A TOTAL OF          5 INNER ITERATIONS.
    ------------------------------------------------

 NO OUTPUT CONTROL FOR STRESS PERIOD   12   TIME STEP   24
 
 SOLVING FOR HEAD 
                                                   Max.-Head-Change                         Max.-Flux-Residual
  Residual-Control   Outer-Iter.   Inner-Iter.     Column Row Layer    Maximum-Head-Change  Column Row Layer    Maximum-Flux-Residual          L2-NORM 
          0                 1           2             4    7     1       0.5229124746E-02       4    7    1         0.2753009269E+00      0.6260433204E+00
          0                 2           2             4    7     1      -0.5086518464E-03       4    7    1        -0.2753013341E-01      0.6093548504E-01
          0                 3           1             4    7     1       0.3463729970E-04       4    7    1         0.1927109777E-02      0.4295699413E-02

    ------------------------------------------------
       NWT REQUIRED            3 OUTER ITERATIONS 
       AND A TOTAL OF          5 INNER ITERATIONS.
    ------------------------------------------------

 NO OUTPUT CONTROL FOR STRESS PERIOD   12   TIME STEP   25
 
 SOLVING FOR HEAD 
                                                   Max.-Head-Change                         Max.-Flux-Residual
  Residual-Control   Outer-Iter.   Inner-Iter.     Column Row Layer    Maximum-Head-Change  Column Row Layer    Maximum-Flux-Residual          L2-NORM 
          0                 1           2             4    7     1       0.5165009602E-02       4    7    1         0.2719094777E+00      0.6196021446E+00
          0                 2           2             4    7     1      -0.5036590088E-03       4    7    1        -0.2727230028E-01      0.6031838067E-01
          0                 3           1             4    7     1       0.3429730458E-04       4    7    1         0.1909061368E-02      0.4252506287E-02

    ------------------------------------------------
       NWT REQUIRED            3 OUTER ITERATIONS 
       AND A TOTAL OF          5 INNER ITERATIONS.
    ------------------------------------------------

 NO OUTPUT CONTROL FOR STRESS PERIOD   12   TIME STEP   26
 
 SOLVING FOR HEAD 
                                                   Max.-Head-Change                         Max.-Flux-Residual
  Residual-Control   Outer-Iter.   Inner-Iter.     Column Row Layer    Maximum-Head-Change  Column Row Layer    Maximum-Flux-Residual          L2-NORM 
          0                 1           2             4    7     1       0.5098735860E-02       4    7    1         0.2685014376E+00      0.6132804924E+00
          0                 2           2             4    7     1      -0.4959686481E-03       4    7    1        -0.2685019042E-01      0.5965069836E-01
          0                 3           1             4    7     1       0.3377362024E-04       4    7    1         0.1879513711E-02      0.4205879865E-02

    ------------------------------------------------
       NWT REQUIRED            3 OUTER ITERATIONS 
       AND A TOTAL OF          5 INNER ITERATIONS.
    ------------------------------------------------

 NO OUTPUT CONTROL FOR STRESS PERIOD   12   TIME STEP   27
 
 SOLVING FOR HEAD 
                                                   Max.-Head-Change                         Max.-Flux-Residual
  Residual-Control   Outer-Iter.   Inner-Iter.     Column Row Layer    Maximum-Head-Change  Column Row Layer    Maximum-Flux-Residual          L2-NORM 
          0                 1           2             4    7     1       0.5035096233E-02       4    7    1         0.2651289610E+00      0.6070702761E+00
          0                 2           2             4    7     1      -0.4897782270E-03       4    7    1        -0.2651294135E-01      0.5902539746E-01
          0                 3           1             4    7     1       0.3335207555E-04       4    7    1         0.1855906261E-02      0.4162053647E-02

    ------------------------------------------------
       NWT REQUIRED            3 OUTER ITERATIONS 
       AND A TOTAL OF          5 INNER ITERATIONS.
    ------------------------------------------------

 NO OUTPUT CONTROL FOR STRESS PERIOD   12   TIME STEP   28
 
 SOLVING FOR HEAD 
                                                   Max.-Head-Change                         Max.-Flux-Residual
  Residual-Control   Outer-Iter.   Inner-Iter.     Column Row Layer    Maximum-Head-Change  Column Row Layer    Maximum-Flux-Residual          L2-NORM 
          0                 1           2             4    7     1       0.4972772815E-02       4    7    1         0.2618268072E+00      0.6009960483E+00
          0                 2           2             4    7     1      -0.4837158383E-03       4    7    1        -0.2618272463E-01      0.5841381987E-01
          0                 3           1             4    7     1       0.3293924944E-04       4    7    1         0.1832791104E-02      0.4119268978E-02

    ------------------------------------------------
       NWT REQUIRED            3 OUTER ITERATIONS 
       AND A TOTAL OF          5 INNER ITERATIONS.
    ------------------------------------------------

 NO OUTPUT CONTROL FOR STRESS PERIOD   12   TIME STEP   29
 
 SOLVING FOR HEAD 
                                                   Max.-Head-Change                         Max.-Flux-Residual
  Residual-Control   Outer-Iter.   Inner-Iter.     Column Row Layer    Maximum-Head-Change  Column Row Layer    Maximum-Flux-Residual          L2-NORM 
          0                 1           2             4    7     1       0.4911460265E-02       4    7    1         0.2585781314E+00      0.5950369154E+00
          0                 2           2             4    7     1      -0.4777517806E-03       4    7    1        -0.2585785578E-01      0.5781413652E-01
          0                 3           1             4    7     1       0.3253311977E-04       4    7    1         0.1810050298E-02      0.4077340775E-02

    ------------------------------------------------
       NWT REQUIRED            3 OUTER ITERATIONS 
       AND A TOTAL OF          5 INNER ITERATIONS.
    ------------------------------------------------

 NO OUTPUT CONTROL FOR STRESS PERIOD   12   TIME STEP   30



 STREAM LISTING     PERIOD     12   STEP       30

 LAYER ROW COL. STREAM  RCH.  FLOW INTO     FLOW TO   FLOW OUT OF   OVRLND.     DIRECT     STREAM       STREAM     STREAM     STREAM   STREAMBED  STREAMBED
                SEG.NO.  NO.  STRM. RCH.    AQUIFER    STRM. RCH.    RUNOFF     PRECIP       ET          HEAD       DEPTH      WIDTH   CONDCTNC.   GRADIENT

   1    1    1     1     1    2.6000E+01  2.4972E-01   2.5750E+01  0.000E+00  0.000E+00  0.000E+00  1.09424E+03  1.193E+00  1.323E+01  5.955E-02  1.398E+00
   1    2    2     1     2    2.5750E+01  3.8620E-01   2.5364E+01  0.000E+00  0.000E+00  0.000E+00  1.08925E+03  1.188E+00  1.317E+01  9.221E-02  1.396E+00
   1    3    3     1     3    2.5364E+01  3.2885E-01   2.5035E+01  0.000E+00  0.000E+00  0.000E+00  1.08360E+03  1.183E+00  1.310E+01  7.861E-02  1.394E+00
   1    3    4     1     4    2.5035E+01  3.0239E-01   2.4733E+01  0.000E+00  0.000E+00  0.000E+00  1.07859E+03  1.178E+00  1.304E+01  7.237E-02  1.393E+00
   1    4    5     2     1    2.2733E+01  3.2259E-01   2.2410E+01  0.000E+00  0.000E+00  0.000E+00  1.07307E+03  1.136E+00  1.200E+01  7.800E-02  1.379E+00
   1    5    6     2     2    2.2410E+01  2.4763E-01   2.2163E+01  0.000E+00  0.000E+00  0.000E+00  1.06764E+03  1.127E+00  1.200E+01  6.000E-02  1.376E+00
   1    6    6     2     3    2.2163E+01  2.4718E-01   2.1915E+01  0.000E+00  0.000E+00  0.000E+00  1.06291E+03  1.120E+00  1.200E+01  6.000E-02  1.373E+00
   1    7    6     2     4    2.1915E+01  2.4672E-01   2.1669E+01  0.000E+00  0.000E+00  0.000E+00  1.05819E+03  1.112E+00  1.200E+01  6.000E-02  1.371E+00
   1    8    6     2     5    2.1669E+01  2.4627E-01   2.1422E+01  0.000E+00  0.000E+00  0.000E+00  1.05346E+03  1.104E+00  1.200E+01  6.000E-02  1.368E+00
   1    3    5     3     1    2.0000E+00  2.8252E-01   1.7175E+00  0.000E+00  0.000E+00  0.000E+00  1.07555E+03  1.909E+00  9.636E+00  7.227E-02  1.955E+00
   1    3    6     3     2    1.7175E+00  2.4905E-01   1.4684E+00  0.000E+00  0.000E+00  0.000E+00  1.07264E+03  1.727E+00  8.909E+00  6.682E-02  1.864E+00
   1    3    7     3     3    1.4684E+00  1.9718E-01   1.2712E+00  0.000E+00  0.000E+00  0.000E+00  1.06987E+03  1.555E+00  8.218E+00  5.547E-02  1.777E+00
   1    4    8     3     4    1.2712E+00  2.2567E-01   1.0456E+00  0.000E+00  0.000E+00  0.000E+00  1.06682E+03  1.364E+00  7.455E+00  6.709E-02  1.682E+00
   1    5    8     3     5    1.0456E+00  1.5790E-01   8.8768E-01  0.000E+00  0.000E+00  0.000E+00  1.06362E+03  1.164E+00  6.655E+00  4.991E-02  1.582E+00
   1    6    8     3     6    8.8768E-01  5.5980E-02   8.3170E-01  0.000E+00  0.000E+00  0.000E+00  1.06158E+03  1.036E+00  6.145E+00  1.844E-02  1.518E+00
   1    5   10     4     1    1.0000E+01  9.0919E-02   9.9091E+00  0.000E+00  0.000E+00  0.000E+00  1.07836E+03  6.368E-01  1.000E+01  2.500E-02  1.212E+00
   1    5    9     4     2    9.9091E+00  1.8158E-01   9.7275E+00  0.000E+00  0.000E+00  0.000E+00  1.07154E+03  6.315E-01  1.000E+01  5.000E-02  1.211E+00
   1    6    8     4     3    9.7275E+00  1.2689E-01   9.6006E+00  0.000E+00  0.000E+00  0.000E+00  1.06381E+03  6.256E-01  1.000E+01  3.500E-02  1.209E+00
   1    6    8     5     1    1.0432E+01  2.2686E-01   1.0205E+01  0.000E+00  0.000E+00  0.000E+00  1.05868E+03  6.790E-01  1.542E+01  6.166E-02  1.226E+00
   1    7    7     5     2    1.0205E+01  2.7894E-01   9.9265E+00  0.000E+00  0.000E+00  0.000E+00  1.05417E+03  6.732E-01  1.519E+01  7.594E-02  1.224E+00
   1    8    7     5     3    9.9265E+00  1.9221E-01   9.7343E+00  0.000E+00  0.000E+00  0.000E+00  1.04992E+03  6.676E-01  1.497E+01  5.241E-02  1.223E+00
   1    8    6     5     4    9.7343E+00  1.3577E-01   9.5985E+00  0.000E+00  0.000E+00  0.000E+00  1.04691E+03  6.637E-01  1.482E+01  3.706E-02  1.221E+00
   1    9    6     6     1    3.1021E+01  2.6318E-01   3.0758E+01  0.000E+00  0.000E+00  0.000E+00  1.04411E+03  1.386E+00  1.200E+01  6.000E-02  1.462E+00
   1   10    7     6     2    3.0758E+01  2.6275E-01   3.0495E+01  0.000E+00  0.000E+00  0.000E+00  1.03956E+03  1.379E+00  1.200E+01  6.000E-02  1.460E+00
   1   11    7     6     3    3.0495E+01  2.6233E-01   3.0233E+01  0.000E+00  0.000E+00  0.000E+00  1.03501E+03  1.372E+00  1.200E+01  6.000E-02  1.457E+00
   1   12    7     6     4    3.0233E+01  2.6190E-01   2.9971E+01  0.000E+00  0.000E+00  0.000E+00  1.03046E+03  1.365E+00  1.200E+01  6.000E-02  1.455E+00
   1   13    7     6     5    2.9971E+01  3.4721E-03   2.9967E+01  0.000E+00  0.000E+00  0.000E+00  1.02727E+03  1.361E+00  1.200E+01  2.400E-02  4.822E-02
   1   14    9     7     1    1.5000E+02  1.3338E+00   1.4867E+02  0.000E+00  0.000E+00  0.000E+00  1.03987E+03  2.288E+00  5.529E+01  5.593E-01  7.949E-01
   1   13    8     7     2    1.4867E+02  1.8217E+00   1.4684E+02  0.000E+00  0.000E+00  0.000E+00  1.03478E+03  2.279E+00  5.526E+01  6.148E-01  9.877E-01
   1   13    7     7     3    1.4684E+02  1.4320E+00   1.4541E+02  0.000E+00  0.000E+00  0.000E+00  1.02969E+03  2.271E+00  5.522E+01  5.585E-01  8.547E-01
   1   13    6     8     1    1.7538E+02  9.0973E-01   1.7447E+02  0.000E+00  0.000E+00  0.000E+00  1.02486E+03  2.984E+00  4.327E+01  4.409E-01  6.878E-01
   1   13    5     8     2    1.7447E+02  1.5501E-01   1.7432E+02  0.000E+00  0.000E+00  0.000E+00  1.01861E+03  2.981E+00  4.322E+01  4.404E-01  1.173E-01
   1   13    4     8     3    1.7432E+02 -2.5614E+00   1.7688E+02  0.000E+00  0.000E+00  0.000E+00  1.01236E+03  2.988E+00  4.333E+01  4.415E+00 -1.934E-01
   1   13    3     8     4    1.7688E+02 -3.7198E+00   1.8060E+02  0.000E+00  0.000E+00  0.000E+00  1.00613E+03  3.008E+00  4.362E+01  4.445E+00 -2.790E-01
   1   13    2     8     5    1.8060E+02 -2.5967E+00   1.8319E+02  0.000E+00  0.000E+00  0.000E+00  9.99903E+02  3.028E+00  4.391E+01  4.474E+00 -1.935E-01
   1   13    1     8     6    1.8319E+02 -1.9853E+00   1.8518E+02  0.000E+00  0.000E+00  0.000E+00  9.94917E+02  3.042E+00  4.411E+01  2.697E+00 -2.454E-01
   1    8    6     9     1    0.0000E+00  0.0000E+00   0.0000E+00  0.000E+00  0.000E+00  0.000E+00  1.07875E+03  0.000E+00  4.000E+00  0.000E+00  1.000E+00
   1    8    5     9     2    0.0000E+00  0.0000E+00   0.0000E+00  0.000E+00  0.000E+00  0.000E+00  1.07825E+03  0.000E+00  4.000E+00  0.000E+00  1.000E+00





UNSATURATED ZONE PACKAGE VOLUMETRIC BUDGET FOR  TIME STEP    30 STRESS PERIOD   12
  ------------------------------------------------------------------------------



     CUMULATIVE VOLUMES      L**3       RATES FOR THIS TIME STEP      L**3/T
     ------------------                 ------------------------

           IN:                                      IN:
           ---                                      ---
        INFILTRATION =   176492502.2375          INFILTRATION =           0.8475

          OUT:                                     OUT:
          ----                                     ----
              UZF ET =    94087031.1175                UZF ET =           0.0276
        UZF RECHARGE =     8743613.1349          UZF RECHARGE =           0.0839

            IN - OUT =    73661857.9851              IN - OUT =           0.7360

          STORAGE:                                 STORAGE:
          --------                                 --------
      STORAGE CHANGE =    73735576.8605        STORAGE CHANGE =           0.7360

 PERCENT DISCREPANCY IS DIFFERENCE BETWEEN IN-OUT MINUS CHANGE IN STORAGE
 DIVIDED BY THE AVERAGE OF IN AND OUT TIMES 100

 PERCENT DISCREPANCY =          -0.01     PERCENT DISCREPANCY =          -0.00






1
  VOLUMETRIC BUDGET FOR ENTIRE MODEL AT END OF TIME STEP   30, STRESS PERIOD  12
  ------------------------------------------------------------------------------

     CUMULATIVE VOLUMES      L**3       RATES FOR THIS TIME STEP      L**3/T
     ------------------                 ------------------------

           IN:                                      IN:
           ---                                      ---
               AWU WELLS =    83320120.0000                 AWU WELLS =           0.0000
      DIVERSION SEGMENTS =    68598824.0000        DIVERSION SEGMENTS =           0.0000
           GW IRRIGATION =           0.0000             GW IRRIGATION =           0.0000
           SW IRRIGATION =           0.0000             SW IRRIGATION =           0.0000
        SYSTEM LOSSES GW =           0.0000          SYSTEM LOSSES GW =           0.0000
        SYSTEM LOSSES SW =           0.0000          SYSTEM LOSSES SW =           0.0000

                TOTAL IN =   151918944.0000                  TOTAL IN =           0.0000

          OUT:                                     OUT:
          ----                                     ----
               AWU WELLS =           0.0000                 AWU WELLS =           0.0000
      DIVERSION SEGMENTS =           0.0000        DIVERSION SEGMENTS =           0.0000
           GW IRRIGATION =    83320120.0000             GW IRRIGATION =           0.0000
           SW IRRIGATION =    68600184.0000             SW IRRIGATION =           0.0000
        SYSTEM LOSSES GW =           0.0000          SYSTEM LOSSES GW =           0.0000
        SYSTEM LOSSES SW =           0.0000          SYSTEM LOSSES SW =           0.0000

               TOTAL OUT =   151920304.0000                 TOTAL OUT =           0.0000

                IN - OUT =       -1360.0000                  IN - OUT =           0.0000

     PERCENT DISCREPANCY =          -0.00         PERCENT DISCREPANCY =           0.00



1
  VOLUMETRIC BUDGET FOR ENTIRE MODEL AT END OF TIME STEP   30, STRESS PERIOD  12
  ------------------------------------------------------------------------------

     CUMULATIVE VOLUMES      L**3       RATES FOR THIS TIME STEP      L**3/T
     ------------------                 ------------------------

           IN:                                      IN:
           ---                                      ---
             STORAGE     =   157230736.0000               STORAGE     =           1.3969
       CONSTANT HEAD     =           0.0000         CONSTANT HEAD     =           0.0000
     HEAD DEP BOUNDS     =     8283635.0000       HEAD DEP BOUNDS     =           0.2856
      STREAM LEAKAGE     =   370283040.0000        STREAM LEAKAGE     =          11.6850
        UZF RECHARGE     =     8743609.0000          UZF RECHARGE     =       8.3910E-02
               GW ET     =           0.0000                 GW ET     =           0.0000
     SURFACE LEAKAGE     =           0.0000       SURFACE LEAKAGE     =           0.0000
           AWU WELLS     =           0.0000             AWU WELLS     =           0.0000

                TOTAL IN =   544540992.0000                  TOTAL IN =          13.4513

          OUT:                                     OUT:
          ----                                     ----
             STORAGE     =   127639032.0000               STORAGE     =           2.2874
       CONSTANT HEAD     =           0.0000         CONSTANT HEAD     =           0.0000
     HEAD DEP BOUNDS     =     8404171.0000       HEAD DEP BOUNDS     =           0.2908
      STREAM LEAKAGE     =   270385568.0000        STREAM LEAKAGE     =          10.8632
        UZF RECHARGE     =           0.0000          UZF RECHARGE     =           0.0000
               GW ET     =    54801044.0000                 GW ET     =       1.0018E-02
     SURFACE LEAKAGE     =           0.0000       SURFACE LEAKAGE     =           0.0000
           AWU WELLS     =    83320120.0000             AWU WELLS     =           0.0000

               TOTAL OUT =   544549952.0000                 TOTAL OUT =          13.4514

                IN - OUT =       -8960.0000                  IN - OUT =      -8.9645E-05

     PERCENT DISCREPANCY =          -0.00         PERCENT DISCREPANCY =          -0.00






         TIME SUMMARY AT END OF TIME STEP   30 IN STRESS PERIOD   12
                    SECONDS     MINUTES      HOURS       DAYS        YEARS
                    -----------------------------------------------------------
   TIME STEP LENGTH  87600.      1460.0      24.333      1.0139     2.77588E-03
 STRESS PERIOD TIME 2.62800E+06  43800.      730.00      30.417     8.32763E-02
         TOTAL TIME 2.89944E+07 4.83240E+05  8054.0      335.58     0.91878    
1
1
                            STRESS PERIOD NO.   13, LENGTH =   2628000.    
                            -----------------------------------------------

                              NUMBER OF TIME STEPS =    30

                               MULTIPLIER FOR DELT =     1.000

                            INITIAL TIME STEP SIZE =   87600.00    

 REUSING NON-PARAMETER GHB CELLS FROM LAST STRESS PERIOD

      2 GHB CELLS

 REUSING STREAM SEGMENT DATA FROM LAST STRESS PERIOD



            AREAL INFILTRATION RATE
 READING ON UNIT   19 WITH FORMAT: (10F4.0)            

            1           2           3           4           5           6           7           8           9          10
 ........................................................................................................................
   1   1.0000E-10  2.0000E-10   0.000       0.000       0.000       0.000       0.000       0.000       0.000       0.000    
   2   2.0000E-10  1.0000E-10  2.0000E-10   0.000       0.000      8.0000E-10  8.0000E-10  5.0000E-10   0.000       0.000    
   3    0.000      5.0000E-10  1.0000E-10  1.0000E-10  8.0000E-10  8.0000E-10  5.0000E-10  5.0000E-10   0.000       0.000    
   4   8.0000E-10  5.0000E-10  1.0000E-10  1.0000E-10  1.0000E-10  1.0000E-10  1.0000E-10  1.0000E-10  2.0000E-10   0.000    
   5   8.0000E-10  5.0000E-10  1.0000E-10  1.0000E-10  1.0000E-10  1.0000E-10  1.0000E-10  1.0000E-10  1.0000E-10  1.0000E-10
   6   8.0000E-10  5.0000E-10  5.0000E-10  2.0000E-10  2.0000E-10  1.0000E-10  1.0000E-10  1.0000E-10  1.0000E-10  5.0000E-10
   7   8.0000E-10  5.0000E-10  5.0000E-10  2.0000E-10  2.0000E-10  1.0000E-10  1.0000E-10  2.0000E-10  2.0000E-10   0.000    
   8    0.000      5.0000E-10  5.0000E-10  2.0000E-10  2.0000E-10  1.0000E-10  1.0000E-10  2.0000E-10  5.0000E-10   0.000    
   9    0.000      5.0000E-10  5.0000E-10  2.0000E-10  2.0000E-10  1.0000E-10  1.0000E-10  2.0000E-10  5.0000E-10   0.000    
  10    0.000      5.0000E-10  5.0000E-10  2.0000E-10  2.0000E-10  1.0000E-10  1.0000E-10  2.0000E-10  5.0000E-10  8.0000E-10
  11    0.000      1.0000E-10  1.0000E-10  1.0000E-10  1.0000E-10  1.0000E-10  1.0000E-10  2.0000E-10  5.0000E-10   0.000    
  12   1.0000E-10  1.0000E-10  1.0000E-10  1.0000E-10  1.0000E-10  1.0000E-10  1.0000E-10  1.0000E-10  2.0000E-10   0.000    
  13   1.0000E-10  1.0000E-10  2.0000E-10  2.0000E-10  2.0000E-10  2.0000E-10  2.0000E-10  1.0000E-10  1.0000E-10   0.000    
  14    0.000      2.0000E-10  5.0000E-10  5.0000E-10  5.0000E-10  5.0000E-10  5.0000E-10  2.0000E-10  1.0000E-10   0.000    
  15    0.000       0.000      8.0000E-10  8.0000E-10  8.0000E-10  8.0000E-10   0.000       0.000       0.000       0.000    

                  ET RATE =  1.000000E-10

 USING ET EXTINCTION DEPTH FROM PREVIOUS STRESS PERIOD. CURRENT PERIOD IS:      13

 USING EXTINCTION WATER CONTENT FROM PREVIOUS STRESS PERIOD. CURRENT PERIOD IS:      13

 PROCESSING AWU STRESS PERIOD DATA

 READING AWU STRESS PERIOD DATA

 READING IRRIGATION STREAM

 READING IRRIGATION WELL

 READING SUPPLEMENTAL WEL

 END PROCESSING AWU STRESS PERIOD DATA OPTIONS
 
 SOLVING FOR HEAD 
                                                   Max.-Head-Change                         Max.-Flux-Residual
  Residual-Control   Outer-Iter.   Inner-Iter.     Column Row Layer    Maximum-Head-Change  Column Row Layer    Maximum-Flux-Residual          L2-NORM 
          0                 1           2             4    7     1       0.4851105933E-02       4    7    1         0.2553819075E+00      0.6020971389E+00
          0                 2           2             4    7     1      -0.4718809315E-03       4    7    1        -0.2553823214E-01      0.5862924886E-01
          0                 3           1             4    7     1       0.3213333695E-04       4    7    1         0.1787676654E-02      0.4127849022E-02

    ------------------------------------------------
       NWT REQUIRED            3 OUTER ITERATIONS 
       AND A TOTAL OF          5 INNER ITERATIONS.
    ------------------------------------------------

 NO OUTPUT CONTROL FOR STRESS PERIOD   13   TIME STEP    1
 
 SOLVING FOR HEAD 
                                                   Max.-Head-Change                         Max.-Flux-Residual
  Residual-Control   Outer-Iter.   Inner-Iter.     Column Row Layer    Maximum-Head-Change  Column Row Layer    Maximum-Flux-Residual          L2-NORM 
          0                 1           2             4    7     1       0.4791966791E-02       4    7    1         0.2522502213E+00      0.5960127667E+00
          0                 2           2             4    7     1      -0.4661282881E-03       4    7    1        -0.2522506233E-01      0.5803098339E-01
          0                 3           1             4    7     1       0.3174160293E-04       4    7    1         0.1765754743E-02      0.4086384152E-02

    ------------------------------------------------
       NWT REQUIRED            3 OUTER ITERATIONS 
       AND A TOTAL OF          5 INNER ITERATIONS.
    ------------------------------------------------

 NO OUTPUT CONTROL FOR STRESS PERIOD   13   TIME STEP    2
 
 SOLVING FOR HEAD 
                                                   Max.-Head-Change                         Max.-Flux-Residual
  Residual-Control   Outer-Iter.   Inner-Iter.     Column Row Layer    Maximum-Head-Change  Column Row Layer    Maximum-Flux-Residual          L2-NORM 
          0                 1           2             4    7     1       0.4734008441E-02       4    7    1         0.2491815893E+00      0.5885759517E+00
          0                 2           2             4    7     1      -0.4604905041E-03       4    7    1        -0.2491819797E-01      0.5729316702E-01
          0                 3           1             4    7     1       0.3135769119E-04       4    7    1         0.1744274245E-02      0.4035135907E-02

    ------------------------------------------------
       NWT REQUIRED            3 OUTER ITERATIONS 
       AND A TOTAL OF          5 INNER ITERATIONS.
    ------------------------------------------------

 NO OUTPUT CONTROL FOR STRESS PERIOD   13   TIME STEP    3
 
 SOLVING FOR HEAD 
                                                   Max.-Head-Change                         Max.-Flux-Residual
  Residual-Control   Outer-Iter.   Inner-Iter.     Column Row Layer    Maximum-Head-Change  Column Row Layer    Maximum-Flux-Residual          L2-NORM 
          0                 1           2             4    7     1       0.4676927584E-02       4    7    1         0.2461594080E+00      0.5814940803E+00
          0                 2           2             4    7     1      -0.4549380768E-03       4    7    1        -0.2461597873E-01      0.5659078399E-01
          0                 3           1             4    7     1       0.3097959144E-04       4    7    1         0.1723118897E-02      0.3987800157E-02

    ------------------------------------------------
       NWT REQUIRED            3 OUTER ITERATIONS 
       AND A TOTAL OF          5 INNER ITERATIONS.
    ------------------------------------------------

 NO OUTPUT CONTROL FOR STRESS PERIOD   13   TIME STEP    4
 
 SOLVING FOR HEAD 
                                                   Max.-Head-Change                         Max.-Flux-Residual
  Residual-Control   Outer-Iter.   Inner-Iter.     Column Row Layer    Maximum-Head-Change  Column Row Layer    Maximum-Flux-Residual          L2-NORM 
          0                 1           2             4    7     1       0.4620982275E-02       4    7    1         0.2431975767E+00      0.5747333412E+00
          0                 2           2             4    7     1      -0.4494961081E-03       4    7    1        -0.2431979453E-01      0.5591943192E-01
          0                 3           1             4    7     1       0.3060901387E-04       4    7    1         0.1702386010E-02      0.3940942334E-02

    ------------------------------------------------
       NWT REQUIRED            3 OUTER ITERATIONS 
       AND A TOTAL OF          5 INNER ITERATIONS.
    ------------------------------------------------

 NO OUTPUT CONTROL FOR STRESS PERIOD   13   TIME STEP    5
 
 SOLVING FOR HEAD 
                                                   Max.-Head-Change                         Max.-Flux-Residual
  Residual-Control   Outer-Iter.   Inner-Iter.     Column Row Layer    Maximum-Head-Change  Column Row Layer    Maximum-Flux-Residual          L2-NORM 
          0                 1           2             4    7     1       0.4566136446E-02       4    7    1         0.2402946671E+00      0.5682447033E+00
          0                 2           2             4    7     1      -0.4441610891E-03       4    7    1        -0.2402950254E-01      0.5527552817E-01
          0                 3           1             4    7     1       0.3024571827E-04       4    7    1         0.1682065543E-02      0.3896392346E-02

    ------------------------------------------------
       NWT REQUIRED            3 OUTER ITERATIONS 
       AND A TOTAL OF          5 INNER ITERATIONS.
    ------------------------------------------------

 NO OUTPUT CONTROL FOR STRESS PERIOD   13   TIME STEP    6
 
 SOLVING FOR HEAD 
                                                   Max.-Head-Change                         Max.-Flux-Residual
  Residual-Control   Outer-Iter.   Inner-Iter.     Column Row Layer    Maximum-Head-Change  Column Row Layer    Maximum-Flux-Residual          L2-NORM 
          0                 1           2             4    7     1       0.4512089285E-02       4    7    1         0.2374339886E+00      0.5620029306E+00
          0                 2           2             4    7     1      -0.4389037592E-03       4    7    1        -0.2374343367E-01      0.5465696483E-01
          0                 3           1             4    7     1       0.2988771445E-04       4    7    1         0.1662040745E-02      0.3853743828E-02

    ------------------------------------------------
       NWT REQUIRED            3 OUTER ITERATIONS 
       AND A TOTAL OF          5 INNER ITERATIONS.
    ------------------------------------------------

 NO OUTPUT CONTROL FOR STRESS PERIOD   13   TIME STEP    7
 
 SOLVING FOR HEAD 
                                                   Max.-Head-Change                         Max.-Flux-Residual
  Residual-Control   Outer-Iter.   Inner-Iter.     Column Row Layer    Maximum-Head-Change  Column Row Layer    Maximum-Flux-Residual          L2-NORM 
          0                 1           2             4    7     1       0.4458830204E-02       4    7    1         0.2346147514E+00      0.5559872638E+00
          0                 2           2             4    7     1      -0.4337230886E-03       4    7    1        -0.2346150897E-01      0.5406092386E-01
          0                 3           1             4    7     1       0.2953492998E-04       4    7    1         0.1642306019E-02      0.3812377356E-02

    ------------------------------------------------
       NWT REQUIRED            3 OUTER ITERATIONS 
       AND A TOTAL OF          5 INNER ITERATIONS.
    ------------------------------------------------

 NO OUTPUT CONTROL FOR STRESS PERIOD   13   TIME STEP    8
 
 SOLVING FOR HEAD 
                                                   Max.-Head-Change                         Max.-Flux-Residual
  Residual-Control   Outer-Iter.   Inner-Iter.     Column Row Layer    Maximum-Head-Change  Column Row Layer    Maximum-Flux-Residual          L2-NORM 
          0                 1           2             4    7     1       0.4406612401E-02       4    7    1         0.2318512254E+00      0.5501606394E+00
          0                 2           2             4    7     1      -0.4286437062E-03       4    7    1        -0.2318515541E-01      0.5348012579E-01
          0                 3           1             4    7     1       0.2918904312E-04       4    7    1         0.1622961263E-02      0.3772107581E-02

    ------------------------------------------------
       NWT REQUIRED            3 OUTER ITERATIONS 
       AND A TOTAL OF          5 INNER ITERATIONS.
    ------------------------------------------------

 NO OUTPUT CONTROL FOR STRESS PERIOD   13   TIME STEP    9
 
 SOLVING FOR HEAD 
                                                   Max.-Head-Change                         Max.-Flux-Residual
  Residual-Control   Outer-Iter.   Inner-Iter.     Column Row Layer    Maximum-Head-Change  Column Row Layer    Maximum-Flux-Residual          L2-NORM 
          0                 1           2             4    7     1       0.4355409990E-02       4    7    1         0.2291417294E+00      0.5445278217E+00
          0                 2           2             4    7     1      -0.4236630947E-03       4    7    1        -0.2291420490E-01      0.5291790942E-01
          0                 3           1             4    7     1       0.2884988203E-04       4    7    1         0.1603994728E-02      0.3733082861E-02

    ------------------------------------------------
       NWT REQUIRED            3 OUTER ITERATIONS 
       AND A TOTAL OF          5 INNER ITERATIONS.
    ------------------------------------------------

 NO OUTPUT CONTROL FOR STRESS PERIOD   13   TIME STEP   10
 
 SOLVING FOR HEAD 
                                                   Max.-Head-Change                         Max.-Flux-Residual
  Residual-Control   Outer-Iter.   Inner-Iter.     Column Row Layer    Maximum-Head-Change  Column Row Layer    Maximum-Flux-Residual          L2-NORM 
          0                 1           2             4    7     1       0.4305192512E-02       4    7    1         0.2264849204E+00      0.5390629195E+00
          0                 2           2             4    7     1      -0.4187782908E-03       4    7    1        -0.2264852313E-01      0.5237249714E-01
          0                 3           1             4    7     1       0.2851724532E-04       4    7    1         0.1585397023E-02      0.3695246651E-02

    ------------------------------------------------
       NWT REQUIRED            3 OUTER ITERATIONS 
       AND A TOTAL OF          5 INNER ITERATIONS.
    ------------------------------------------------

 NO OUTPUT CONTROL FOR STRESS PERIOD   13   TIME STEP   11
 
 SOLVING FOR HEAD 
                                                   Max.-Head-Change                         Max.-Flux-Residual
  Residual-Control   Outer-Iter.   Inner-Iter.     Column Row Layer    Maximum-Head-Change  Column Row Layer    Maximum-Flux-Residual          L2-NORM 
          0                 1           2             4    7     1       0.4255664831E-02       4    7    1         0.2238643981E+00      0.5337482109E+00
          0                 2           2             4    7     1      -0.4139605852E-03       4    7    1        -0.2238647005E-01      0.5184128985E-01
          0                 3           1             4    7     1       0.2818917712E-04       4    7    1         0.1567053283E-02      0.3658362938E-02

    ------------------------------------------------
       NWT REQUIRED            3 OUTER ITERATIONS 
       AND A TOTAL OF          5 INNER ITERATIONS.
    ------------------------------------------------

 NO OUTPUT CONTROL FOR STRESS PERIOD   13   TIME STEP   12
 
 SOLVING FOR HEAD 
                                                   Max.-Head-Change                         Max.-Flux-Residual
  Residual-Control   Outer-Iter.   Inner-Iter.     Column Row Layer    Maximum-Head-Change  Column Row Layer    Maximum-Flux-Residual          L2-NORM 
          0                 1           2             4    7     1       0.4206816194E-02       4    7    1         0.2212796682E+00      0.5285735125E+00
          0                 2           2             4    7     1      -0.4092089329E-03       4    7    1        -0.2212799623E-01      0.5132383051E-01
          0                 3           1             4    7     1       0.2786560760E-04       4    7    1         0.1548960141E-02      0.3622700150E-02

    ------------------------------------------------
       NWT REQUIRED            3 OUTER ITERATIONS 
       AND A TOTAL OF          5 INNER ITERATIONS.
    ------------------------------------------------

 NO OUTPUT CONTROL FOR STRESS PERIOD   13   TIME STEP   13
 
 SOLVING FOR HEAD 
                                                   Max.-Head-Change                         Max.-Flux-Residual
  Residual-Control   Outer-Iter.   Inner-Iter.     Column Row Layer    Maximum-Head-Change  Column Row Layer    Maximum-Flux-Residual          L2-NORM 
          0                 1           2             4    7     1       0.4159180595E-02       4    7    1         0.2187598121E+00      0.5235376536E+00
          0                 2           2             4    7     1      -0.4045752765E-03       4    7    1        -0.2187600983E-01      0.5082003920E-01
          0                 3           1             4    7     1       0.2755007290E-04       4    7    1         0.1531321088E-02      0.3587428601E-02

    ------------------------------------------------
       NWT REQUIRED            3 OUTER ITERATIONS 
       AND A TOTAL OF          5 INNER ITERATIONS.
    ------------------------------------------------

 NO OUTPUT CONTROL FOR STRESS PERIOD   13   TIME STEP   14
 
 SOLVING FOR HEAD 
                                                   Max.-Head-Change                         Max.-Flux-Residual
  Residual-Control   Outer-Iter.   Inner-Iter.     Column Row Layer    Maximum-Head-Change  Column Row Layer    Maximum-Flux-Residual          L2-NORM 
          0                 1           2             4    7     1       0.4112170274E-02       4    7    1         0.2162732588E+00      0.5186086568E+00
          0                 2           2             4    7     1      -0.4000024427E-03       4    7    1        -0.2162735375E-01      0.5032648731E-01
          0                 3           1             4    7     1       0.2723868022E-04       4    7    1         0.1513915155E-02      0.3553096359E-02

    ------------------------------------------------
       NWT REQUIRED            3 OUTER ITERATIONS 
       AND A TOTAL OF          5 INNER ITERATIONS.
    ------------------------------------------------

 NO OUTPUT CONTROL FOR STRESS PERIOD   13   TIME STEP   15
 
 SOLVING FOR HEAD 
                                                   Max.-Head-Change                         Max.-Flux-Residual
  Residual-Control   Outer-Iter.   Inner-Iter.     Column Row Layer    Maximum-Head-Change  Column Row Layer    Maximum-Flux-Residual          L2-NORM 
          0                 1           2             4    7     1       0.4065776406E-02       4    7    1         0.2138191498E+00      0.5137982258E+00
          0                 2           2             4    7     1      -0.3954895736E-03       4    7    1        -0.2138194209E-01      0.4984444094E-01
          0                 3           1             4    7     1       0.2693137039E-04       4    7    1         0.1496736338E-02      0.3519543926E-02

    ------------------------------------------------
       NWT REQUIRED            3 OUTER ITERATIONS 
       AND A TOTAL OF          5 INNER ITERATIONS.
    ------------------------------------------------

 NO OUTPUT CONTROL FOR STRESS PERIOD   13   TIME STEP   16
 
 SOLVING FOR HEAD 
                                                   Max.-Head-Change                         Max.-Flux-Residual
  Residual-Control   Outer-Iter.   Inner-Iter.     Column Row Layer    Maximum-Head-Change  Column Row Layer    Maximum-Flux-Residual          L2-NORM 
          0                 1           2             4    7     1       0.4020539731E-02       4    7    1         0.2114266678E+00      0.5091065281E+00
          0                 2           2             4    7     1      -0.3910892679E-03       4    7    1        -0.2114269316E-01      0.4937414243E-01
          0                 3           1             4    7     1       0.2663172570E-04       4    7    1         0.1479988910E-02      0.3486917959E-02

    ------------------------------------------------
       NWT REQUIRED            3 OUTER ITERATIONS 
       AND A TOTAL OF          5 INNER ITERATIONS.
    ------------------------------------------------

 NO OUTPUT CONTROL FOR STRESS PERIOD   13   TIME STEP   17
 
 SOLVING FOR HEAD 
                                                   Max.-Head-Change                         Max.-Flux-Residual
  Residual-Control   Outer-Iter.   Inner-Iter.     Column Row Layer    Maximum-Head-Change  Column Row Layer    Maximum-Flux-Residual          L2-NORM 
          0                 1           2             4    7     1       0.3975874088E-02       4    7    1         0.2090645902E+00      0.5045096133E+00
          0                 2           2             4    7     1      -0.3867445086E-03       4    7    1        -0.2090648471E-01      0.4891283617E-01
          0                 3           1             4    7     1       0.2633586399E-04       4    7    1         0.1463454314E-02      0.3454698061E-02

    ------------------------------------------------
       NWT REQUIRED            3 OUTER ITERATIONS 
       AND A TOTAL OF          5 INNER ITERATIONS.
    ------------------------------------------------

 NO OUTPUT CONTROL FOR STRESS PERIOD   13   TIME STEP   18
 
 SOLVING FOR HEAD 
                                                   Max.-Head-Change                         Max.-Flux-Residual
  Residual-Control   Outer-Iter.   Inner-Iter.     Column Row Layer    Maximum-Head-Change  Column Row Layer    Maximum-Flux-Residual          L2-NORM 
          0                 1           2             4    7     1       0.3931771816E-02       4    7    1         0.2067321421E+00      0.4999927141E+00
          0                 2           2             4    7     1      -0.3824545500E-03       4    7    1        -0.2067323921E-01      0.4845934166E-01
          0                 3           1             4    7     1       0.2604373391E-04       4    7    1         0.1447127129E-02      0.3423127196E-02

    ------------------------------------------------
       NWT REQUIRED            3 OUTER ITERATIONS 
       AND A TOTAL OF          5 INNER ITERATIONS.
    ------------------------------------------------

 NO OUTPUT CONTROL FOR STRESS PERIOD   13   TIME STEP   19
 
 SOLVING FOR HEAD 
                                                   Max.-Head-Change                         Max.-Flux-Residual
  Residual-Control   Outer-Iter.   Inner-Iter.     Column Row Layer    Maximum-Head-Change  Column Row Layer    Maximum-Flux-Residual          L2-NORM 
          0                 1           2             4    7     1       0.3888770207E-02       4    7    1         0.2044585674E+00      0.4955880113E+00
          0                 2           2             4    7     1      -0.3782716566E-03       4    7    1        -0.2044588109E-01      0.4801687698E-01
          0                 3           1             4    7     1       0.2575889455E-04       4    7    1         0.1431212065E-02      0.3392362650E-02

    ------------------------------------------------
       NWT REQUIRED            3 OUTER ITERATIONS 
       AND A TOTAL OF          5 INNER ITERATIONS.
    ------------------------------------------------

 NO OUTPUT CONTROL FOR STRESS PERIOD   13   TIME STEP   20
 
 SOLVING FOR HEAD 
                                                   Max.-Head-Change                         Max.-Flux-Residual
  Residual-Control   Outer-Iter.   Inner-Iter.     Column Row Layer    Maximum-Head-Change  Column Row Layer    Maximum-Flux-Residual          L2-NORM 
          0                 1           2             4    7     1       0.3846289405E-02       4    7    1         0.2022124631E+00      0.4912611171E+00
          0                 2           2             4    7     1      -0.3741394236E-03       4    7    1        -0.2022127002E-01      0.4758204970E-01
          0                 3           1             4    7     1       0.2547750494E-04       4    7    1         0.1415489296E-02      0.3362083499E-02

    ------------------------------------------------
       NWT REQUIRED            3 OUTER ITERATIONS 
       AND A TOTAL OF          5 INNER ITERATIONS.
    ------------------------------------------------

 NO OUTPUT CONTROL FOR STRESS PERIOD   13   TIME STEP   21
 
 SOLVING FOR HEAD 
                                                   Max.-Head-Change                         Max.-Flux-Residual
  Residual-Control   Outer-Iter.   Inner-Iter.     Column Row Layer    Maximum-Head-Change  Column Row Layer    Maximum-Flux-Residual          L2-NORM 
          0                 1           2             4    7     1       0.3804325608E-02       4    7    1         0.1999933823E+00      0.4870144882E+00
          0                 2           2             4    7     1      -0.3700574812E-03       4    7    1        -0.1999936133E-01      0.4715492396E-01
          0                 3           1             4    7     1       0.2519953976E-04       4    7    1         0.1399955671E-02      0.3332335714E-02

    ------------------------------------------------
       NWT REQUIRED            3 OUTER ITERATIONS 
       AND A TOTAL OF          5 INNER ITERATIONS.
    ------------------------------------------------

 NO OUTPUT CONTROL FOR STRESS PERIOD   13   TIME STEP   22
 
 SOLVING FOR HEAD 
                                                   Max.-Head-Change                         Max.-Flux-Residual
  Residual-Control   Outer-Iter.   Inner-Iter.     Column Row Layer    Maximum-Head-Change  Column Row Layer    Maximum-Flux-Residual          L2-NORM 
          0                 1           2             4    7     1       0.3763138673E-02       4    7    1         0.1978159488E+00      0.4828484819E+00
          0                 2           2             4    7     1      -0.3660511067E-03       4    7    1        -0.1978161737E-01      0.4673564757E-01
          0                 3           1             4    7     1       0.2492672080E-04       4    7    1         0.1384713611E-02      0.3303074522E-02

    ------------------------------------------------
       NWT REQUIRED            3 OUTER ITERATIONS 
       AND A TOTAL OF          5 INNER ITERATIONS.
    ------------------------------------------------

 NO OUTPUT CONTROL FOR STRESS PERIOD   13   TIME STEP   23
 
 SOLVING FOR HEAD 
                                                   Max.-Head-Change                         Max.-Flux-Residual
  Residual-Control   Outer-Iter.   Inner-Iter.     Column Row Layer    Maximum-Head-Change  Column Row Layer    Maximum-Flux-Residual          L2-NORM 
          0                 1           2             4    7     1       0.3722981619E-02       4    7    1         0.1956936465E+00      0.4787694219E+00
          0                 2           2             4    7     1      -0.3621449122E-03       4    7    1        -0.1956938658E-01      0.4632496765E-01
          0                 3           1             4    7     1       0.2466072323E-04       4    7    1         0.1369857451E-02      0.3274516085E-02

    ------------------------------------------------
       NWT REQUIRED            3 OUTER ITERATIONS 
       AND A TOTAL OF          5 INNER ITERATIONS.
    ------------------------------------------------

 NO OUTPUT CONTROL FOR STRESS PERIOD   13   TIME STEP   24
 
 SOLVING FOR HEAD 
                                                   Max.-Head-Change                         Max.-Flux-Residual
  Residual-Control   Outer-Iter.   Inner-Iter.     Column Row Layer    Maximum-Head-Change  Column Row Layer    Maximum-Flux-Residual          L2-NORM 
          0                 1           2             4    7     1       0.3683008614E-02       4    7    1         0.1935803194E+00      0.4747435178E+00
          0                 2           2             4    7     1      -0.3582566202E-03       4    7    1        -0.1935805328E-01      0.4591937771E-01
          0                 3           1             4    7     1       0.2439594501E-04       4    7    1         0.1355064114E-02      0.3246269767E-02

    ------------------------------------------------
       NWT REQUIRED            3 OUTER ITERATIONS 
       AND A TOTAL OF          5 INNER ITERATIONS.
    ------------------------------------------------

 NO OUTPUT CONTROL FOR STRESS PERIOD   13   TIME STEP   25
 
 SOLVING FOR HEAD 
                                                   Max.-Head-Change                         Max.-Flux-Residual
  Residual-Control   Outer-Iter.   Inner-Iter.     Column Row Layer    Maximum-Head-Change  Column Row Layer    Maximum-Flux-Residual          L2-NORM 
          0                 1           2             4    7     1       0.3644038586E-02       4    7    1         0.1915210061E+00      0.4707913809E+00
          0                 2           2             4    7     1      -0.3544658915E-03       4    7    1        -0.1915212144E-01      0.4552095459E-01
          0                 3           1             4    7     1       0.2413781044E-04       4    7    1         0.1340648875E-02      0.3218550498E-02

    ------------------------------------------------
       NWT REQUIRED            3 OUTER ITERATIONS 
       AND A TOTAL OF          5 INNER ITERATIONS.
    ------------------------------------------------

 NO OUTPUT CONTROL FOR STRESS PERIOD   13   TIME STEP   26
 
 SOLVING FOR HEAD 
                                                   Max.-Head-Change                         Max.-Flux-Residual
  Residual-Control   Outer-Iter.   Inner-Iter.     Column Row Layer    Maximum-Head-Change  Column Row Layer    Maximum-Flux-Residual          L2-NORM 
          0                 1           2             4    7     1       0.3605499697E-02       4    7    1         0.1894840927E+00      0.4669111629E+00
          0                 2           2             4    7     1      -0.3507171004E-03       4    7    1        -0.1894842955E-01      0.4512952720E-01
          0                 3           1             4    7     1       0.2388253181E-04       4    7    1         0.1326390444E-02      0.3191292029E-02

    ------------------------------------------------
       NWT REQUIRED            3 OUTER ITERATIONS 
       AND A TOTAL OF          5 INNER ITERATIONS.
    ------------------------------------------------

 NO OUTPUT CONTROL FOR STRESS PERIOD   13   TIME STEP   27
 
 SOLVING FOR HEAD 
                                                   Max.-Head-Change                         Max.-Flux-Residual
  Residual-Control   Outer-Iter.   Inner-Iter.     Column Row Layer    Maximum-Head-Change  Column Row Layer    Maximum-Flux-Residual          L2-NORM 
          0                 1           2             4    7     1       0.3567661030E-02       4    7    1         0.1874843718E+00      0.4631046646E+00
          0                 2           2             4    7     1      -0.3470364229E-03       4    7    1        -0.1874845697E-01      0.4474535788E-01
          0                 3           1             4    7     1       0.2363189174E-04       4    7    1         0.1312392380E-02      0.3164526183E-02

    ------------------------------------------------
       NWT REQUIRED            3 OUTER ITERATIONS 
       AND A TOTAL OF          5 INNER ITERATIONS.
    ------------------------------------------------

 NO OUTPUT CONTROL FOR STRESS PERIOD   13   TIME STEP   28
 
 SOLVING FOR HEAD 
                                                   Max.-Head-Change                         Max.-Flux-Residual
  Residual-Control   Outer-Iter.   Inner-Iter.     Column Row Layer    Maximum-Head-Change  Column Row Layer    Maximum-Flux-Residual          L2-NORM 
          0                 1           2             4    7     1       0.3530227760E-02       4    7    1         0.1855061627E+00      0.4593509344E+00
          0                 2           2             4    7     1      -0.3433951790E-03       4    7    1        -0.1855063555E-01      0.4436637565E-01
          0                 3           1             4    7     1       0.2338393649E-04       4    7    1         0.1298544877E-02      0.3138137327E-02

    ------------------------------------------------
       NWT REQUIRED            3 OUTER ITERATIONS 
       AND A TOTAL OF          5 INNER ITERATIONS.
    ------------------------------------------------

 NO OUTPUT CONTROL FOR STRESS PERIOD   13   TIME STEP   29
 
 SOLVING FOR HEAD 
                                                   Max.-Head-Change                         Max.-Flux-Residual
  Residual-Control   Outer-Iter.   Inner-Iter.     Column Row Layer    Maximum-Head-Change  Column Row Layer    Maximum-Flux-Residual          L2-NORM 
          0                 1           2             4    7     1       0.3493740274E-02       4    7    1         0.1835786322E+00      0.4556607961E+00
          0                 2           2             4    7     1      -0.3398459343E-03       4    7    1        -0.1835788203E-01      0.4399347036E-01
          0                 3           1             4    7     1       0.2314224598E-04       4    7    1         0.1285052120E-02      0.3112224025E-02

    ------------------------------------------------
       NWT REQUIRED            3 OUTER ITERATIONS 
       AND A TOTAL OF          5 INNER ITERATIONS.
    ------------------------------------------------

 NO OUTPUT CONTROL FOR STRESS PERIOD   13   TIME STEP   30



 STREAM LISTING     PERIOD     13   STEP       30

 LAYER ROW COL. STREAM  RCH.  FLOW INTO     FLOW TO   FLOW OUT OF   OVRLND.     DIRECT     STREAM       STREAM     STREAM     STREAM   STREAMBED  STREAMBED
                SEG.NO.  NO.  STRM. RCH.    AQUIFER    STRM. RCH.    RUNOFF     PRECIP       ET          HEAD       DEPTH      WIDTH   CONDCTNC.   GRADIENT

   1    1    1     1     1    2.3000E+01  2.3574E-01   2.2764E+01  0.000E+00  0.000E+00  0.000E+00  1.09420E+03  1.148E+00  1.263E+01  5.684E-02  1.383E+00
   1    2    2     1     2    2.2764E+01  3.6445E-01   2.2400E+01  0.000E+00  0.000E+00  0.000E+00  1.08920E+03  1.143E+00  1.257E+01  8.797E-02  1.381E+00
   1    3    3     1     3    2.2400E+01  3.1020E-01   2.2090E+01  0.000E+00  0.000E+00  0.000E+00  1.08356E+03  1.138E+00  1.250E+01  7.497E-02  1.379E+00
   1    3    4     1     4    2.2090E+01  2.8513E-01   2.1804E+01  0.000E+00  0.000E+00  0.000E+00  1.07854E+03  1.133E+00  1.243E+01  6.899E-02  1.378E+00
   1    4    5     2     1    1.9804E+01  3.1551E-01   1.9489E+01  0.000E+00  0.000E+00  0.000E+00  1.07298E+03  1.045E+00  1.200E+01  7.800E-02  1.348E+00
   1    5    6     2     2    1.9489E+01  2.4216E-01   1.9247E+01  0.000E+00  0.000E+00  0.000E+00  1.06755E+03  1.036E+00  1.200E+01  6.000E-02  1.345E+00
   1    6    6     2     3    1.9247E+01  2.4170E-01   1.9005E+01  0.000E+00  0.000E+00  0.000E+00  1.06282E+03  1.028E+00  1.200E+01  6.000E-02  1.343E+00
   1    7    6     2     4    1.9005E+01  2.4123E-01   1.8764E+01  0.000E+00  0.000E+00  0.000E+00  1.05810E+03  1.020E+00  1.200E+01  6.000E-02  1.340E+00
   1    8    6     2     5    1.8764E+01  2.4076E-01   1.8523E+01  0.000E+00  0.000E+00  0.000E+00  1.05337E+03  1.013E+00  1.200E+01  6.000E-02  1.338E+00
   1    3    5     3     1    2.0000E+00  2.8252E-01   1.7175E+00  0.000E+00  0.000E+00  0.000E+00  1.07555E+03  1.909E+00  9.636E+00  7.227E-02  1.955E+00
   1    3    6     3     2    1.7175E+00  2.4905E-01   1.4684E+00  0.000E+00  0.000E+00  0.000E+00  1.07264E+03  1.727E+00  8.909E+00  6.682E-02  1.864E+00
   1    3    7     3     3    1.4684E+00  1.9718E-01   1.2712E+00  0.000E+00  0.000E+00  0.000E+00  1.06987E+03  1.555E+00  8.218E+00  5.547E-02  1.777E+00
   1    4    8     3     4    1.2712E+00  2.2567E-01   1.0456E+00  0.000E+00  0.000E+00  0.000E+00  1.06682E+03  1.364E+00  7.455E+00  6.709E-02  1.682E+00
   1    5    8     3     5    1.0456E+00  1.5790E-01   8.8768E-01  0.000E+00  0.000E+00  0.000E+00  1.06362E+03  1.164E+00  6.655E+00  4.991E-02  1.582E+00
   1    6    8     3     6    8.8768E-01  5.5980E-02   8.3170E-01  0.000E+00  0.000E+00  0.000E+00  1.06158E+03  1.036E+00  6.145E+00  1.844E-02  1.518E+00
   1    5   10     4     1    1.0000E+01  9.0919E-02   9.9091E+00  0.000E+00  0.000E+00  0.000E+00  1.07836E+03  6.368E-01  1.000E+01  2.500E-02  1.212E+00
   1    5    9     4     2    9.9091E+00  1.8158E-01   9.7275E+00  0.000E+00  0.000E+00  0.000E+00  1.07154E+03  6.315E-01  1.000E+01  5.000E-02  1.211E+00
   1    6    8     4     3    9.7275E+00  1.2689E-01   9.6006E+00  0.000E+00  0.000E+00  0.000E+00  1.06381E+03  6.256E-01  1.000E+01  3.500E-02  1.209E+00
   1    6    8     5     1    1.0432E+01  2.2686E-01   1.0205E+01  0.000E+00  0.000E+00  0.000E+00  1.05868E+03  6.790E-01  1.542E+01  6.166E-02  1.226E+00
   1    7    7     5     2    1.0205E+01  2.7894E-01   9.9265E+00  0.000E+00  0.000E+00  0.000E+00  1.05417E+03  6.732E-01  1.519E+01  7.594E-02  1.224E+00
   1    8    7     5     3    9.9265E+00  1.9221E-01   9.7343E+00  0.000E+00  0.000E+00  0.000E+00  1.04992E+03  6.676E-01  1.497E+01  5.241E-02  1.223E+00
   1    8    6     5     4    9.7343E+00  1.3577E-01   9.5985E+00  0.000E+00  0.000E+00  0.000E+00  1.04691E+03  6.637E-01  1.482E+01  3.706E-02  1.221E+00
   1    9    6     6     1    2.8122E+01  2.5841E-01   2.7863E+01  0.000E+00  0.000E+00  0.000E+00  1.04403E+03  1.307E+00  1.200E+01  6.000E-02  1.436E+00
   1   10    7     6     2    2.7863E+01  2.5797E-01   2.7605E+01  0.000E+00  0.000E+00  0.000E+00  1.03948E+03  1.300E+00  1.200E+01  6.000E-02  1.433E+00
   1   11    7     6     3    2.7605E+01  2.5754E-01   2.7348E+01  0.000E+00  0.000E+00  0.000E+00  1.03493E+03  1.292E+00  1.200E+01  6.000E-02  1.431E+00
   1   12    7     6     4    2.7348E+01  2.5710E-01   2.7091E+01  0.000E+00  0.000E+00  0.000E+00  1.03038E+03  1.285E+00  1.200E+01  6.000E-02  1.428E+00
   1   13    7     6     5    2.7091E+01  1.4469E-03   2.7089E+01  0.000E+00  0.000E+00  0.000E+00  1.02719E+03  1.281E+00  1.200E+01  2.400E-02  2.010E-02
   1   14    9     7     1    1.5000E+02  1.3338E+00   1.4867E+02  0.000E+00  0.000E+00  0.000E+00  1.03987E+03  2.288E+00  5.529E+01  5.593E-01  7.949E-01
   1   13    8     7     2    1.4867E+02  1.8199E+00   1.4685E+02  0.000E+00  0.000E+00  0.000E+00  1.03478E+03  2.279E+00  5.526E+01  6.148E-01  9.868E-01
   1   13    7     7     3    1.4685E+02  1.4296E+00   1.4542E+02  0.000E+00  0.000E+00  0.000E+00  1.02969E+03  2.271E+00  5.522E+01  5.585E-01  8.533E-01
   1   13    6     8     1    1.7251E+02  8.9280E-01   1.7161E+02  0.000E+00  0.000E+00  0.000E+00  1.02484E+03  2.966E+00  4.300E+01  4.382E-01  6.792E-01
   1   13    5     8     2    1.7161E+02  1.4208E-01   1.7147E+02  0.000E+00  0.000E+00  0.000E+00  1.01859E+03  2.962E+00  4.295E+01  4.377E-01  1.082E-01
   1   13    4     8     3    1.7147E+02 -2.5816E+00   1.7405E+02  0.000E+00  0.000E+00  0.000E+00  1.01235E+03  2.970E+00  4.307E+01  4.389E+00 -1.961E-01
   1   13    3     8     4    1.7405E+02 -3.7213E+00   1.7777E+02  0.000E+00  0.000E+00  0.000E+00  1.00612E+03  2.990E+00  4.336E+01  4.418E+00 -2.807E-01
   1   13    2     8     5    1.7777E+02 -2.5932E+00   1.8037E+02  0.000E+00  0.000E+00  0.000E+00  9.99885E+02  3.010E+00  4.365E+01  4.448E+00 -1.943E-01
   1   13    1     8     6    1.8037E+02 -1.9872E+00   1.8235E+02  0.000E+00  0.000E+00  0.000E+00  9.94900E+02  3.025E+00  4.386E+01  2.682E+00 -2.470E-01
   1    8    6     9     1    0.0000E+00  0.0000E+00   0.0000E+00  0.000E+00  0.000E+00  0.000E+00  1.07875E+03  0.000E+00  4.000E+00  0.000E+00  1.000E+00
   1    8    5     9     2    0.0000E+00  0.0000E+00   0.0000E+00  0.000E+00  0.000E+00  0.000E+00  1.07825E+03  0.000E+00  4.000E+00  0.000E+00  1.000E+00





UNSATURATED ZONE PACKAGE VOLUMETRIC BUDGET FOR  TIME STEP    30 STRESS PERIOD   13
  ------------------------------------------------------------------------------



     CUMULATIVE VOLUMES      L**3       RATES FOR THIS TIME STEP      L**3/T
     ------------------                 ------------------------

           IN:                                      IN:
           ---                                      ---
        INFILTRATION =   178719732.2375          INFILTRATION =           0.8475

          OUT:                                     OUT:
          ----                                     ----
              UZF ET =    94166765.2928                UZF ET =           0.0329
        UZF RECHARGE =     8942242.8616          UZF RECHARGE =           0.0724

            IN - OUT =    75610724.0830              IN - OUT =           0.7422

          STORAGE:                                 STORAGE:
          --------                                 --------
      STORAGE CHANGE =    75684442.9526        STORAGE CHANGE =           0.7422

 PERCENT DISCREPANCY IS DIFFERENCE BETWEEN IN-OUT MINUS CHANGE IN STORAGE
 DIVIDED BY THE AVERAGE OF IN AND OUT TIMES 100

 PERCENT DISCREPANCY =          -0.01     PERCENT DISCREPANCY =           0.00






1
  VOLUMETRIC BUDGET FOR ENTIRE MODEL AT END OF TIME STEP   30, STRESS PERIOD  13
  ------------------------------------------------------------------------------

     CUMULATIVE VOLUMES      L**3       RATES FOR THIS TIME STEP      L**3/T
     ------------------                 ------------------------

           IN:                                      IN:
           ---                                      ---
               AWU WELLS =    83320120.0000                 AWU WELLS =           0.0000
      DIVERSION SEGMENTS =    68598824.0000        DIVERSION SEGMENTS =           0.0000
           GW IRRIGATION =           0.0000             GW IRRIGATION =           0.0000
           SW IRRIGATION =           0.0000             SW IRRIGATION =           0.0000
        SYSTEM LOSSES GW =           0.0000          SYSTEM LOSSES GW =           0.0000
        SYSTEM LOSSES SW =           0.0000          SYSTEM LOSSES SW =           0.0000

                TOTAL IN =   151918944.0000                  TOTAL IN =           0.0000

          OUT:                                     OUT:
          ----                                     ----
               AWU WELLS =           0.0000                 AWU WELLS =           0.0000
      DIVERSION SEGMENTS =           0.0000        DIVERSION SEGMENTS =           0.0000
           GW IRRIGATION =    83320120.0000             GW IRRIGATION =           0.0000
           SW IRRIGATION =    68600184.0000             SW IRRIGATION =           0.0000
        SYSTEM LOSSES GW =           0.0000          SYSTEM LOSSES GW =           0.0000
        SYSTEM LOSSES SW =           0.0000          SYSTEM LOSSES SW =           0.0000

               TOTAL OUT =   151920304.0000                 TOTAL OUT =           0.0000

                IN - OUT =       -1360.0000                  IN - OUT =           0.0000

     PERCENT DISCREPANCY =          -0.00         PERCENT DISCREPANCY =           0.00



1
  VOLUMETRIC BUDGET FOR ENTIRE MODEL AT END OF TIME STEP   30, STRESS PERIOD  13
  ------------------------------------------------------------------------------

     CUMULATIVE VOLUMES      L**3       RATES FOR THIS TIME STEP      L**3/T
     ------------------                 ------------------------

           IN:                                      IN:
           ---                                      ---
             STORAGE     =   160759648.0000               STORAGE     =           1.1183
       CONSTANT HEAD     =           0.0000         CONSTANT HEAD     =           0.0000
     HEAD DEP BOUNDS     =     9034252.0000       HEAD DEP BOUNDS     =           0.2856
      STREAM LEAKAGE     =   400594368.0000        STREAM LEAKAGE     =          11.5290
        UZF RECHARGE     =     8942238.0000          UZF RECHARGE     =       7.2392E-02
               GW ET     =           0.0000                 GW ET     =           0.0000
     SURFACE LEAKAGE     =           0.0000       SURFACE LEAKAGE     =           0.0000
           AWU WELLS     =           0.0000             AWU WELLS     =           0.0000

                TOTAL IN =   579330496.0000                  TOTAL IN =          13.0052

          OUT:                                     OUT:
          ----                                     ----
             STORAGE     =   132881208.0000               STORAGE     =           1.8217
       CONSTANT HEAD     =           0.0000         CONSTANT HEAD     =           0.0000
     HEAD DEP BOUNDS     =     9167681.0000       HEAD DEP BOUNDS     =           0.2903
      STREAM LEAKAGE     =   299143328.0000        STREAM LEAKAGE     =          10.8834
        UZF RECHARGE     =           0.0000          UZF RECHARGE     =           0.0000
               GW ET     =    54827132.0000                 GW ET     =       9.8473E-03
     SURFACE LEAKAGE     =           0.0000       SURFACE LEAKAGE     =           0.0000
           AWU WELLS     =    83320120.0000             AWU WELLS     =           0.0000

               TOTAL OUT =   579339456.0000                 TOTAL OUT =          13.0053

                IN - OUT =       -8960.0000                  IN - OUT =      -7.9155E-05

     PERCENT DISCREPANCY =          -0.00         PERCENT DISCREPANCY =          -0.00






         TIME SUMMARY AT END OF TIME STEP   30 IN STRESS PERIOD   13
                    SECONDS     MINUTES      HOURS       DAYS        YEARS
                    -----------------------------------------------------------
   TIME STEP LENGTH  87600.      1460.0      24.333      1.0139     2.77588E-03
 STRESS PERIOD TIME 2.62800E+06  43800.      730.00      30.417     8.32763E-02
         TOTAL TIME 3.16224E+07 5.27040E+05  8784.0      366.00      1.0021    
1
1
                            STRESS PERIOD NO.   14, LENGTH =   2628000.    
                            -----------------------------------------------

                              NUMBER OF TIME STEPS =    30

                               MULTIPLIER FOR DELT =     1.000

                            INITIAL TIME STEP SIZE =   87600.00    

 REUSING NON-PARAMETER GHB CELLS FROM LAST STRESS PERIOD

      2 GHB CELLS

 REUSING STREAM SEGMENT DATA FROM LAST STRESS PERIOD



            AREAL INFILTRATION RATE
 READING ON UNIT   19 WITH FORMAT: (10F4.0)            

            1           2           3           4           5           6           7           8           9          10
 ........................................................................................................................
   1   1.0000E-10  2.0000E-10   0.000       0.000       0.000       0.000       0.000       0.000       0.000       0.000    
   2   2.0000E-10  1.0000E-10  2.0000E-10   0.000       0.000      8.0000E-10  8.0000E-10  5.0000E-10   0.000       0.000    
   3    0.000      5.0000E-10  1.0000E-10  1.0000E-10  8.0000E-10  8.0000E-10  5.0000E-10  5.0000E-10   0.000       0.000    
   4   8.0000E-10  5.0000E-10  1.0000E-10  1.0000E-10  1.0000E-10  1.0000E-10  1.0000E-10  1.0000E-10  2.0000E-10   0.000    
   5   8.0000E-10  5.0000E-10  1.0000E-10  1.0000E-10  1.0000E-10  1.0000E-10  1.0000E-10  1.0000E-10  1.0000E-10  1.0000E-10
   6   8.0000E-10  5.0000E-10  5.0000E-10  2.0000E-10  2.0000E-10  1.0000E-10  1.0000E-10  1.0000E-10  1.0000E-10  5.0000E-10
   7   8.0000E-10  5.0000E-10  5.0000E-10  2.0000E-10  2.0000E-10  1.0000E-10  1.0000E-10  2.0000E-10  2.0000E-10   0.000    
   8    0.000      5.0000E-10  5.0000E-10  2.0000E-10  2.0000E-10  1.0000E-10  1.0000E-10  2.0000E-10  5.0000E-10   0.000    
   9    0.000      5.0000E-10  5.0000E-10  2.0000E-10  2.0000E-10  1.0000E-10  1.0000E-10  2.0000E-10  5.0000E-10   0.000    
  10    0.000      5.0000E-10  5.0000E-10  2.0000E-10  2.0000E-10  1.0000E-10  1.0000E-10  2.0000E-10  5.0000E-10  8.0000E-10
  11    0.000      1.0000E-10  1.0000E-10  1.0000E-10  1.0000E-10  1.0000E-10  1.0000E-10  2.0000E-10  5.0000E-10   0.000    
  12   1.0000E-10  1.0000E-10  1.0000E-10  1.0000E-10  1.0000E-10  1.0000E-10  1.0000E-10  1.0000E-10  2.0000E-10   0.000    
  13   1.0000E-10  1.0000E-10  2.0000E-10  2.0000E-10  2.0000E-10  2.0000E-10  2.0000E-10  1.0000E-10  1.0000E-10   0.000    
  14    0.000      2.0000E-10  5.0000E-10  5.0000E-10  5.0000E-10  5.0000E-10  5.0000E-10  2.0000E-10  1.0000E-10   0.000    
  15    0.000       0.000      8.0000E-10  8.0000E-10  8.0000E-10  8.0000E-10   0.000       0.000       0.000       0.000    

                  ET RATE =  1.000000E-10

 USING ET EXTINCTION DEPTH FROM PREVIOUS STRESS PERIOD. CURRENT PERIOD IS:      14

 USING EXTINCTION WATER CONTENT FROM PREVIOUS STRESS PERIOD. CURRENT PERIOD IS:      14

 PROCESSING AWU STRESS PERIOD DATA

 READING AWU STRESS PERIOD DATA

 READING IRRIGATION STREAM

 READING IRRIGATION WELL

 READING SUPPLEMENTAL WEL

 END PROCESSING AWU STRESS PERIOD DATA OPTIONS
 
 SOLVING FOR HEAD 
                                                   Max.-Head-Change                         Max.-Flux-Residual
  Residual-Control   Outer-Iter.   Inner-Iter.     Column Row Layer    Maximum-Head-Change  Column Row Layer    Maximum-Flux-Residual          L2-NORM 
          0                 1           2             4    7     1       0.3457625076E-02       4    7    1         0.1816705332E+00      0.4528932607E+00
          0                 2           2             4    7     1      -0.3363329034E-03       4    7    1        -0.1816707166E-01      0.4374075575E-01
          0                 3           1             4    7     1       0.2290302161E-04       4    7    1         0.1271695391E-02      0.3094161113E-02

    ------------------------------------------------
       NWT REQUIRED            3 OUTER ITERATIONS 
       AND A TOTAL OF          5 INNER ITERATIONS.
    ------------------------------------------------

 NO OUTPUT CONTROL FOR STRESS PERIOD   14   TIME STEP    1
 
 SOLVING FOR HEAD 
                                                   Max.-Head-Change                         Max.-Flux-Residual
  Residual-Control   Outer-Iter.   Inner-Iter.     Column Row Layer    Maximum-Head-Change  Column Row Layer    Maximum-Flux-Residual          L2-NORM 
          0                 1           2             4    7     1       0.3421844072E-02       4    7    1         0.1797817516E+00      0.4796443473E+00
          0                 2           2             4    7     1      -0.3328523812E-03       4    7    1        -0.1797819305E-01      0.4792007969E-01
          0                 3           1             4    7     1       0.2266601108E-04       4    7    1         0.1258473902E-02      0.3301458952E-02

    ------------------------------------------------
       NWT REQUIRED            3 OUTER ITERATIONS 
       AND A TOTAL OF          5 INNER ITERATIONS.
    ------------------------------------------------

 NO OUTPUT CONTROL FOR STRESS PERIOD   14   TIME STEP    2
 
 SOLVING FOR HEAD 
                                                   Max.-Head-Change                         Max.-Flux-Residual
  Residual-Control   Outer-Iter.   Inner-Iter.     Column Row Layer    Maximum-Head-Change  Column Row Layer    Maximum-Flux-Residual          L2-NORM 
          0                 1           2             4    7     1       0.3386945863E-02       4    7    1         0.1779399542E+00      0.4723801158E+00
          0                 2           2             4    7     1      -0.3294577304E-03       4    7    1        -0.1779401286E-01      0.4580140672E-01
          0                 3           1             4    7     1       0.2243484803E-04       4    7    1         0.1245581281E-02      0.3224810246E-02

    ------------------------------------------------
       NWT REQUIRED            3 OUTER ITERATIONS 
       AND A TOTAL OF          5 INNER ITERATIONS.
    ------------------------------------------------

 NO OUTPUT CONTROL FOR STRESS PERIOD   14   TIME STEP    3
 
 SOLVING FOR HEAD 
                                                   Max.-Head-Change                         Max.-Flux-Residual
  Residual-Control   Outer-Iter.   Inner-Iter.     Column Row Layer    Maximum-Head-Change  Column Row Layer    Maximum-Flux-Residual          L2-NORM 
          0                 1           2             4    7     1       0.3352356524E-02       4    7    1         0.1761143193E+00      0.4656575053E+00
          0                 2           2             4    7     1      -0.3260931251E-03       4    7    1        -0.1761144897E-01      0.4517827677E-01
          0                 3           1             4    7     1       0.2220573056E-04       4    7    1         0.1232801801E-02      0.3182258258E-02

    ------------------------------------------------
       NWT REQUIRED            3 OUTER ITERATIONS 
       AND A TOTAL OF          5 INNER ITERATIONS.
    ------------------------------------------------

 NO OUTPUT CONTROL FOR STRESS PERIOD   14   TIME STEP    4
 
 SOLVING FOR HEAD 
                                                   Max.-Head-Change                         Max.-Flux-Residual
  Residual-Control   Outer-Iter.   Inner-Iter.     Column Row Layer    Maximum-Head-Change  Column Row Layer    Maximum-Flux-Residual          L2-NORM 
          0                 1           2             4    7     1       0.3318348256E-02       4    7    1         0.1743195334E+00      0.4593747334E+00
          0                 2           2             4    7     1      -0.3227850416E-03       4    7    1        -0.1743196997E-01      0.4455808499E-01
          0                 3           1             4    7     1       0.2198046233E-04       4    7    1         0.1220238250E-02      0.3140270843E-02

    ------------------------------------------------
       NWT REQUIRED            3 OUTER ITERATIONS 
       AND A TOTAL OF          5 INNER ITERATIONS.
    ------------------------------------------------

 NO OUTPUT CONTROL FOR STRESS PERIOD   14   TIME STEP    5
 
 SOLVING FOR HEAD 
                                                   Max.-Head-Change                         Max.-Flux-Residual
  Residual-Control   Outer-Iter.   Inner-Iter.     Column Row Layer    Maximum-Head-Change  Column Row Layer    Maximum-Flux-Residual          L2-NORM 
          0                 1           2             4    7     1       0.3284906863E-02       4    7    1         0.1725548982E+00      0.4535203486E+00
          0                 2           2             4    7     1      -0.3195321002E-03       4    7    1        -0.1725550605E-01      0.4398007798E-01
          0                 3           1             4    7     1       0.2175894988E-04       4    7    1         0.1207885804E-02      0.3101717368E-02

    ------------------------------------------------
       NWT REQUIRED            3 OUTER ITERATIONS 
       AND A TOTAL OF          5 INNER ITERATIONS.
    ------------------------------------------------

 NO OUTPUT CONTROL FOR STRESS PERIOD   14   TIME STEP    6
 
 SOLVING FOR HEAD 
                                                   Max.-Head-Change                         Max.-Flux-Residual
  Residual-Control   Outer-Iter.   Inner-Iter.     Column Row Layer    Maximum-Head-Change  Column Row Layer    Maximum-Flux-Residual          L2-NORM 
          0                 1           2             4    7     1       0.3251750239E-02       4    7    1         0.1708048548E+00      0.4480357508E+00
          0                 2           2             4    7     1      -0.3163068591E-03       4    7    1        -0.1708050133E-01      0.4343751674E-01
          0                 3           1             4    7     1       0.2153932229E-04       4    7    1         0.1195635444E-02      0.3065827762E-02

    ------------------------------------------------
       NWT REQUIRED            3 OUTER ITERATIONS 
       AND A TOTAL OF          5 INNER ITERATIONS.
    ------------------------------------------------

 NO OUTPUT CONTROL FOR STRESS PERIOD   14   TIME STEP    7
 
 SOLVING FOR HEAD 
                                                   Max.-Head-Change                         Max.-Flux-Residual
  Residual-Control   Outer-Iter.   Inner-Iter.     Column Row Layer    Maximum-Head-Change  Column Row Layer    Maximum-Flux-Residual          L2-NORM 
          0                 1           2             4    7     1       0.3219150895E-02       4    7    1         0.1690844101E+00      0.4428669604E+00
          0                 2           2             4    7     1      -0.3131358264E-03       4    7    1        -0.1690845647E-01      0.4292450543E-01
          0                 3           1             4    7     1       0.2132338704E-04       4    7    1         0.1183592321E-02      0.3031189172E-02

    ------------------------------------------------
       NWT REQUIRED            3 OUTER ITERATIONS 
       AND A TOTAL OF          5 INNER ITERATIONS.
    ------------------------------------------------

 NO OUTPUT CONTROL FOR STRESS PERIOD   14   TIME STEP    8
 
 SOLVING FOR HEAD 
                                                   Max.-Head-Change                         Max.-Flux-Residual
  Residual-Control   Outer-Iter.   Inner-Iter.     Column Row Layer    Maximum-Head-Change  Column Row Layer    Maximum-Flux-Residual          L2-NORM 
          0                 1           2             4    7     1       0.3187096770E-02       4    7    1         0.1673928817E+00      0.4379890174E+00
          0                 2           2             4    7     1      -0.3100178290E-03       4    7    1        -0.1673930327E-01      0.4244038529E-01
          0                 3           1             4    7     1       0.2111106295E-04       4    7    1         0.1171751598E-02      0.2997800688E-02

    ------------------------------------------------
       NWT REQUIRED            3 OUTER ITERATIONS 
       AND A TOTAL OF          5 INNER ITERATIONS.
    ------------------------------------------------

 NO OUTPUT CONTROL FOR STRESS PERIOD   14   TIME STEP    9
 
 SOLVING FOR HEAD 
                                                   Max.-Head-Change                         Max.-Flux-Residual
  Residual-Control   Outer-Iter.   Inner-Iter.     Column Row Layer    Maximum-Head-Change  Column Row Layer    Maximum-Flux-Residual          L2-NORM 
          0                 1           2             4    7     1       0.3155572508E-02       4    7    1         0.1657296438E+00      0.4333491536E+00
          0                 2           2             4    7     1      -0.3069529813E-03       4    7    1        -0.1657297915E-01      0.4198110458E-01
          0                 3           1             4    7     1       0.2090235854E-04       4    7    1         0.1160108914E-02      0.2966402870E-02

    ------------------------------------------------
       NWT REQUIRED            3 OUTER ITERATIONS 
       AND A TOTAL OF          5 INNER ITERATIONS.
    ------------------------------------------------

 NO OUTPUT CONTROL FOR STRESS PERIOD   14   TIME STEP   10
 
 SOLVING FOR HEAD 
                                                   Max.-Head-Change                         Max.-Flux-Residual
  Residual-Control   Outer-Iter.   Inner-Iter.     Column Row Layer    Maximum-Head-Change  Column Row Layer    Maximum-Flux-Residual          L2-NORM 
          0                 1           2             4    7     1       0.3124549181E-02       4    7    1         0.1640938141E+00      0.4289291487E+00
          0                 2           2             4    7     1      -0.3039336444E-03       4    7    1        -0.1640939584E-01      0.4153860991E-01
          0                 3           1             4    7     1       0.2069675290E-04       4    7    1         0.1148658081E-02      0.2936238992E-02

    ------------------------------------------------
       NWT REQUIRED            3 OUTER ITERATIONS 
       AND A TOTAL OF          5 INNER ITERATIONS.
    ------------------------------------------------

 NO OUTPUT CONTROL FOR STRESS PERIOD   14   TIME STEP   11
 
 SOLVING FOR HEAD 
                                                   Max.-Head-Change                         Max.-Flux-Residual
  Residual-Control   Outer-Iter.   Inner-Iter.     Column Row Layer    Maximum-Head-Change  Column Row Layer    Maximum-Flux-Residual          L2-NORM 
          0                 1           2             4    7     1       0.3093755099E-02       4    7    1         0.1624693249E+00      0.4246954904E+00
          0                 2           2             4    7     1      -0.3009382152E-03       4    7    1        -0.1624694658E-01      0.4111620505E-01
          0                 3           1             4    7     1       0.2049277533E-04       4    7    1         0.1137286637E-02      0.2906590926E-02

    ------------------------------------------------
       NWT REQUIRED            3 OUTER ITERATIONS 
       AND A TOTAL OF          5 INNER ITERATIONS.
    ------------------------------------------------

 NO OUTPUT CONTROL FOR STRESS PERIOD   14   TIME STEP   12
 
 SOLVING FOR HEAD 
                                                   Max.-Head-Change                         Max.-Flux-Residual
  Residual-Control   Outer-Iter.   Inner-Iter.     Column Row Layer    Maximum-Head-Change  Column Row Layer    Maximum-Flux-Residual          L2-NORM 
          0                 1           2             4    7     1       0.3063465020E-02       4    7    1         0.1608714684E+00      0.4206347233E+00
          0                 2           2             4    7     1      -0.2979918115E-03       4    7    1        -0.1608716060E-01      0.4071082190E-01
          0                 3           1             4    7     1       0.2029213627E-04       4    7    1         0.1126101616E-02      0.2879496425E-02

    ------------------------------------------------
       NWT REQUIRED            3 OUTER ITERATIONS 
       AND A TOTAL OF          5 INNER ITERATIONS.
    ------------------------------------------------

 NO OUTPUT CONTROL FOR STRESS PERIOD   14   TIME STEP   13
 
 SOLVING FOR HEAD 
                                                   Max.-Head-Change                         Max.-Flux-Residual
  Residual-Control   Outer-Iter.   Inner-Iter.     Column Row Layer    Maximum-Head-Change  Column Row Layer    Maximum-Flux-Residual          L2-NORM 
          0                 1           2             4    7     1       0.3033663227E-02       4    7    1         0.1592997639E+00      0.4167284754E+00
          0                 2           2             4    7     1      -0.2950929053E-03       4    7    1        -0.1592998984E-01      0.4032023598E-01
          0                 3           1             4    7     1       0.2009473159E-04       4    7    1         0.1115099658E-02      0.2852143035E-02

    ------------------------------------------------
       NWT REQUIRED            3 OUTER ITERATIONS 
       AND A TOTAL OF          5 INNER ITERATIONS.
    ------------------------------------------------

 NO OUTPUT CONTROL FOR STRESS PERIOD   14   TIME STEP   14
 
 SOLVING FOR HEAD 
                                                   Max.-Head-Change                         Max.-Flux-Residual
  Residual-Control   Outer-Iter.   Inner-Iter.     Column Row Layer    Maximum-Head-Change  Column Row Layer    Maximum-Flux-Residual          L2-NORM 
          0                 1           2             4    7     1       0.3004074944E-02       4    7    1         0.1577385723E+00      0.4129597324E+00
          0                 2           2             4    7     1      -0.2922147670E-03       4    7    1        -0.1577387037E-01      0.3994296792E-01
          0                 3           1             4    7     1       0.1989874056E-04       4    7    1         0.1104171265E-02      0.2826234064E-02

    ------------------------------------------------
       NWT REQUIRED            3 OUTER ITERATIONS 
       AND A TOTAL OF          5 INNER ITERATIONS.
    ------------------------------------------------

 NO OUTPUT CONTROL FOR STRESS PERIOD   14   TIME STEP   15
 
 SOLVING FOR HEAD 
                                                   Max.-Head-Change                         Max.-Flux-Residual
  Residual-Control   Outer-Iter.   Inner-Iter.     Column Row Layer    Maximum-Head-Change  Column Row Layer    Maximum-Flux-Residual          L2-NORM 
          0                 1           2             4    7     1       0.2975242758E-02       4    7    1         0.1562181063E+00      0.4093181716E+00
          0                 2           2             4    7     1      -0.2894101774E-03       4    7    1        -0.1562182348E-01      0.3957843780E-01
          0                 3           1             4    7     1       0.1970775872E-04       4    7    1         0.1093527991E-02      0.2801015852E-02

    ------------------------------------------------
       NWT REQUIRED            3 OUTER ITERATIONS 
       AND A TOTAL OF          5 INNER ITERATIONS.
    ------------------------------------------------

 NO OUTPUT CONTROL FOR STRESS PERIOD   14   TIME STEP   16
 
 SOLVING FOR HEAD 
                                                   Max.-Head-Change                         Max.-Flux-Residual
  Residual-Control   Outer-Iter.   Inner-Iter.     Column Row Layer    Maximum-Head-Change  Column Row Layer    Maximum-Flux-Residual          L2-NORM 
          0                 1           2             4    7     1       0.2946601696E-02       4    7    1         0.1547072259E+00      0.4057855325E+00
          0                 2           2             4    7     1      -0.2866241789E-03       4    7    1        -0.1547073515E-01      0.3922448032E-01
          0                 3           1             4    7     1       0.1951804261E-04       4    7    1         0.1082951812E-02      0.2776663717E-02

    ------------------------------------------------
       NWT REQUIRED            3 OUTER ITERATIONS 
       AND A TOTAL OF          5 INNER ITERATIONS.
    ------------------------------------------------

 NO OUTPUT CONTROL FOR STRESS PERIOD   14   TIME STEP   17
 
 SOLVING FOR HEAD 
                                                   Max.-Head-Change                         Max.-Flux-Residual
  Residual-Control   Outer-Iter.   Inner-Iter.     Column Row Layer    Maximum-Head-Change  Column Row Layer    Maximum-Flux-Residual          L2-NORM 
          0                 1           2             4    7     1       0.2918416683E-02       4    7    1         0.1532210862E+00      0.4023540201E+00
          0                 2           2             4    7     1      -0.2838825415E-03       4    7    1        -0.1532212090E-01      0.3888012284E-01
          0                 3           1             4    7     1       0.1933134716E-04       4    7    1         0.1072548812E-02      0.2752828345E-02

    ------------------------------------------------
       NWT REQUIRED            3 OUTER ITERATIONS 
       AND A TOTAL OF          5 INNER ITERATIONS.
    ------------------------------------------------

 NO OUTPUT CONTROL FOR STRESS PERIOD   14   TIME STEP   18
 
 SOLVING FOR HEAD 
                                                   Max.-Head-Change                         Max.-Flux-Residual
  Residual-Control   Outer-Iter.   Inner-Iter.     Column Row Layer    Maximum-Head-Change  Column Row Layer    Maximum-Flux-Residual          L2-NORM 
          0                 1           2             4    7     1       0.2890692213E-02       4    7    1         0.1517586100E+00      0.3990243942E+00
          0                 2           2             4    7     1      -0.2811857024E-03       4    7    1        -0.1517587300E-01      0.3854615568E-01
          0                 3           1             1    2     1       0.1919337090E-04       4    7    1         0.1062311447E-02      0.2729607010E-02

    ------------------------------------------------
       NWT REQUIRED            3 OUTER ITERATIONS 
       AND A TOTAL OF          5 INNER ITERATIONS.
    ------------------------------------------------

 NO OUTPUT CONTROL FOR STRESS PERIOD   14   TIME STEP   19
 
 SOLVING FOR HEAD 
                                                   Max.-Head-Change                         Max.-Flux-Residual
  Residual-Control   Outer-Iter.   Inner-Iter.     Column Row Layer    Maximum-Head-Change  Column Row Layer    Maximum-Flux-Residual          L2-NORM 
          0                 1           2             4    7     1       0.2863136350E-02       4    7    1         0.1503052070E+00      0.3957715960E+00
          0                 2           2             4    7     1      -0.2785052641E-03       4    7    1        -0.1503053243E-01      0.3821909542E-01
          0                 3           1             1    2     1       0.1916148724E-04       4    7    1         0.1052137601E-02      0.2706970377E-02

    ------------------------------------------------
       NWT REQUIRED            3 OUTER ITERATIONS 
       AND A TOTAL OF          5 INNER ITERATIONS.
    ------------------------------------------------

 NO OUTPUT CONTROL FOR STRESS PERIOD   14   TIME STEP   20
 
 SOLVING FOR HEAD 
                                                   Max.-Head-Change                         Max.-Flux-Residual
  Residual-Control   Outer-Iter.   Inner-Iter.     Column Row Layer    Maximum-Head-Change  Column Row Layer    Maximum-Flux-Residual          L2-NORM 
          0                 1           2             4    7     1       0.2836302529E-02       4    7    1         0.1488902003E+00      0.3926047645E+00
          0                 2           2             4    7     1      -0.2758950614E-03       4    7    1        -0.1488903148E-01      0.3789940418E-01
          0                 3           1             1    2     1       0.1912917565E-04       4    7    1         0.1042232556E-02      0.2684857714E-02

    ------------------------------------------------
       NWT REQUIRED            3 OUTER ITERATIONS 
       AND A TOTAL OF          5 INNER ITERATIONS.
    ------------------------------------------------

 NO OUTPUT CONTROL FOR STRESS PERIOD   14   TIME STEP   21
 
 SOLVING FOR HEAD 
                                                   Max.-Head-Change                         Max.-Flux-Residual
  Residual-Control   Outer-Iter.   Inner-Iter.     Column Row Layer    Maximum-Head-Change  Column Row Layer    Maximum-Flux-Residual          L2-NORM 
          0                 1           2             4    7     1       0.2809617381E-02       4    7    1         0.1474830115E+00      0.3895045839E+00
          0                 2           2             4    7     1      -0.2732993204E-03       4    7    1        -0.1474831235E-01      0.3758640087E-01
          0                 3           1             1    2     1       0.1909705789E-04       4    7    1         0.1032382199E-02      0.2663242045E-02

    ------------------------------------------------
       NWT REQUIRED            3 OUTER ITERATIONS 
       AND A TOTAL OF          5 INNER ITERATIONS.
    ------------------------------------------------

 NO OUTPUT CONTROL FOR STRESS PERIOD   14   TIME STEP   22
 
 SOLVING FOR HEAD 
                                                   Max.-Head-Change                         Max.-Flux-Residual
  Residual-Control   Outer-Iter.   Inner-Iter.     Column Row Layer    Maximum-Head-Change  Column Row Layer    Maximum-Flux-Residual          L2-NORM 
          0                 1           2             4    7     1       0.2783359231E-02       4    7    1         0.1460983608E+00      0.3864688243E+00
          0                 2           2             4    7     1      -0.2707451148E-03       4    7    1        -0.1460984703E-01      0.3728024154E-01
          0                 3           1             1    2     1       0.1906575224E-04       4    7    1         0.1022689628E-02      0.2641945833E-02

    ------------------------------------------------
       NWT REQUIRED            3 OUTER ITERATIONS 
       AND A TOTAL OF          5 INNER ITERATIONS.
    ------------------------------------------------

 NO OUTPUT CONTROL FOR STRESS PERIOD   14   TIME STEP   23
 
 SOLVING FOR HEAD 
                                                   Max.-Head-Change                         Max.-Flux-Residual
  Residual-Control   Outer-Iter.   Inner-Iter.     Column Row Layer    Maximum-Head-Change  Column Row Layer    Maximum-Flux-Residual          L2-NORM 
          0                 1           2             4    7     1       0.2757247743E-02       4    7    1         0.1447210424E+00      0.3834969019E+00
          0                 2           2             4    7     1      -0.2682051752E-03       4    7    1        -0.1447211494E-01      0.3698098891E-01
          0                 3           1             1    2     1       0.1903401315E-04       4    7    1         0.1013048376E-02      0.2621269796E-02

    ------------------------------------------------
       NWT REQUIRED            3 OUTER ITERATIONS 
       AND A TOTAL OF          5 INNER ITERATIONS.
    ------------------------------------------------

 NO OUTPUT CONTROL FOR STRESS PERIOD   14   TIME STEP   24
 
 SOLVING FOR HEAD 
                                                   Max.-Head-Change                         Max.-Flux-Residual
  Residual-Control   Outer-Iter.   Inner-Iter.     Column Row Layer    Maximum-Head-Change  Column Row Layer    Maximum-Flux-Residual          L2-NORM 
          0                 1           2             4    7     1       0.2731829072E-02       4    7    1         0.1433809824E+00      0.3805894201E+00
          0                 2           2             4    7     1      -0.2657326283E-03       4    7    1        -0.1433810869E-01      0.3668849025E-01
          0                 3           1             1    2     1       0.1900308291E-04       4    7    1         0.1003667960E-02      0.2601031286E-02

    ------------------------------------------------
       NWT REQUIRED            3 OUTER ITERATIONS 
       AND A TOTAL OF          5 INNER ITERATIONS.
    ------------------------------------------------

 NO OUTPUT CONTROL FOR STRESS PERIOD   14   TIME STEP   25
 
 SOLVING FOR HEAD 
                                                   Max.-Head-Change                         Max.-Flux-Residual
  Residual-Control   Outer-Iter.   Inner-Iter.     Column Row Layer    Maximum-Head-Change  Column Row Layer    Maximum-Flux-Residual          L2-NORM 
          0                 1           2             4    7     1       0.2706534329E-02       4    7    1         0.1420472229E+00      0.3777302492E+00
          0                 2           2             4    7     1      -0.2632721362E-03       4    7    1        -0.1420473253E-01      0.3640140094E-01
          0                 3           1             1    2     1       0.1897171549E-04       4    7    1         0.9943316149E-03      0.2581186452E-02

    ------------------------------------------------
       NWT REQUIRED            3 OUTER ITERATIONS 
       AND A TOTAL OF          5 INNER ITERATIONS.
    ------------------------------------------------

 NO OUTPUT CONTROL FOR STRESS PERIOD   14   TIME STEP   26
 
 SOLVING FOR HEAD 
                                                   Max.-Head-Change                         Max.-Flux-Residual
  Residual-Control   Outer-Iter.   Inner-Iter.     Column Row Layer    Maximum-Head-Change  Column Row Layer    Maximum-Flux-Residual          L2-NORM 
          0                 1           2             4    7     1       0.2681649957E-02       4    7    1         0.1407347181E+00      0.3749387633E+00
          0                 2           2             4    7     1      -0.2608515619E-03       4    7    1        -0.1407348183E-01      0.3612155616E-01
          0                 3           1             1    2     1       0.1894053039E-04       4    7    1         0.9851440525E-03      0.2561698150E-02

    ------------------------------------------------
       NWT REQUIRED            3 OUTER ITERATIONS 
       AND A TOTAL OF          5 INNER ITERATIONS.
    ------------------------------------------------

 NO OUTPUT CONTROL FOR STRESS PERIOD   14   TIME STEP   27
 
 SOLVING FOR HEAD 
                                                   Max.-Head-Change                         Max.-Flux-Residual
  Residual-Control   Outer-Iter.   Inner-Iter.     Column Row Layer    Maximum-Head-Change  Column Row Layer    Maximum-Flux-Residual          L2-NORM 
          0                 1           2             4    7     1       0.2657156250E-02       4    7    1         0.1394435070E+00      0.3721876271E+00
          0                 2           2             4    7     1      -0.2584689887E-03       4    7    1        -0.1394436049E-01      0.3584631115E-01
          0                 3           1             1    2     1       0.1891014865E-04       4    7    1         0.9761055526E-03      0.2542797556E-02

    ------------------------------------------------
       NWT REQUIRED            3 OUTER ITERATIONS 
       AND A TOTAL OF          5 INNER ITERATIONS.
    ------------------------------------------------

 NO OUTPUT CONTROL FOR STRESS PERIOD   14   TIME STEP   28
 
 SOLVING FOR HEAD 
                                                   Max.-Head-Change                         Max.-Flux-Residual
  Residual-Control   Outer-Iter.   Inner-Iter.     Column Row Layer    Maximum-Head-Change  Column Row Layer    Maximum-Flux-Residual          L2-NORM 
          0                 1           2             4    7     1       0.2633047466E-02       4    7    1         0.1381725666E+00      0.3694895400E+00
          0                 2           2             4    7     1      -0.2561238589E-03       4    7    1        -0.1381726625E-01      0.3557689632E-01
          0                 3           1             1    2     1       0.1887932122E-04       4    7    1         0.9672089823E-03      0.2523884607E-02

    ------------------------------------------------
       NWT REQUIRED            3 OUTER ITERATIONS 
       AND A TOTAL OF          5 INNER ITERATIONS.
    ------------------------------------------------

 NO OUTPUT CONTROL FOR STRESS PERIOD   14   TIME STEP   29
 
 SOLVING FOR HEAD 
                                                   Max.-Head-Change                         Max.-Flux-Residual
  Residual-Control   Outer-Iter.   Inner-Iter.     Column Row Layer    Maximum-Head-Change  Column Row Layer    Maximum-Flux-Residual          L2-NORM 
          0                 1           2             4    7     1       0.2609315136E-02       4    7    1         0.1369215994E+00      0.3668403396E+00
          0                 2           2             4    7     1      -0.2538153468E-03       4    7    1        -0.1369216933E-01      0.3531181793E-01
          0                 3           1             1    2     1       0.1884867211E-04       4    7    1         0.9584521549E-03      0.2505605680E-02

    ------------------------------------------------
       NWT REQUIRED            3 OUTER ITERATIONS 
       AND A TOTAL OF          5 INNER ITERATIONS.
    ------------------------------------------------

 NO OUTPUT CONTROL FOR STRESS PERIOD   14   TIME STEP   30



 STREAM LISTING     PERIOD     14   STEP       30

 LAYER ROW COL. STREAM  RCH.  FLOW INTO     FLOW TO   FLOW OUT OF   OVRLND.     DIRECT     STREAM       STREAM     STREAM     STREAM   STREAMBED  STREAMBED
                SEG.NO.  NO.  STRM. RCH.    AQUIFER    STRM. RCH.    RUNOFF     PRECIP       ET          HEAD       DEPTH      WIDTH   CONDCTNC.   GRADIENT

   1    1    1     1     1    1.9000E+01  2.1427E-01   1.8786E+01  0.000E+00  0.000E+00  0.000E+00  1.09413E+03  1.082E+00  1.166E+01  5.249E-02  1.361E+00
   1    2    2     1     2    1.8786E+01  3.3054E-01   1.8455E+01  0.000E+00  0.000E+00  0.000E+00  1.08914E+03  1.077E+00  1.158E+01  8.107E-02  1.359E+00
   1    3    3     1     3    1.8455E+01  2.8064E-01   1.8175E+01  0.000E+00  0.000E+00  0.000E+00  1.08349E+03  1.072E+00  1.149E+01  6.892E-02  1.357E+00
   1    3    4     1     4    1.8175E+01  2.5740E-01   1.7917E+01  0.000E+00  0.000E+00  0.000E+00  1.07848E+03  1.068E+00  1.140E+01  6.328E-02  1.356E+00
   1    4    5     2     1    1.5917E+01  3.0542E-01   1.5612E+01  0.000E+00  0.000E+00  0.000E+00  1.07285E+03  9.157E-01  1.200E+01  7.800E-02  1.305E+00
   1    5    6     2     2    1.5612E+01  2.3438E-01   1.5377E+01  0.000E+00  0.000E+00  0.000E+00  1.06742E+03  9.063E-01  1.200E+01  6.000E-02  1.302E+00
   1    6    6     2     3    1.5377E+01  2.3388E-01   1.5143E+01  0.000E+00  0.000E+00  0.000E+00  1.06269E+03  8.980E-01  1.200E+01  6.000E-02  1.299E+00
   1    7    6     2     4    1.5143E+01  2.3338E-01   1.4910E+01  0.000E+00  0.000E+00  0.000E+00  1.05797E+03  8.897E-01  1.200E+01  6.000E-02  1.297E+00
   1    8    6     2     5    1.4910E+01  2.3289E-01   1.4677E+01  0.000E+00  0.000E+00  0.000E+00  1.05324E+03  8.814E-01  1.200E+01  6.000E-02  1.294E+00
   1    3    5     3     1    2.0000E+00  2.8252E-01   1.7175E+00  0.000E+00  0.000E+00  0.000E+00  1.07555E+03  1.909E+00  9.636E+00  7.227E-02  1.955E+00
   1    3    6     3     2    1.7175E+00  2.4905E-01   1.4684E+00  0.000E+00  0.000E+00  0.000E+00  1.07264E+03  1.727E+00  8.909E+00  6.682E-02  1.864E+00
   1    3    7     3     3    1.4684E+00  1.9718E-01   1.2712E+00  0.000E+00  0.000E+00  0.000E+00  1.06987E+03  1.555E+00  8.218E+00  5.547E-02  1.777E+00
   1    4    8     3     4    1.2712E+00  2.2567E-01   1.0456E+00  0.000E+00  0.000E+00  0.000E+00  1.06682E+03  1.364E+00  7.455E+00  6.709E-02  1.682E+00
   1    5    8     3     5    1.0456E+00  1.5790E-01   8.8768E-01  0.000E+00  0.000E+00  0.000E+00  1.06362E+03  1.164E+00  6.655E+00  4.991E-02  1.582E+00
   1    6    8     3     6    8.8768E-01  5.5980E-02   8.3170E-01  0.000E+00  0.000E+00  0.000E+00  1.06158E+03  1.036E+00  6.145E+00  1.844E-02  1.518E+00
   1    5   10     4     1    1.0000E+01  9.0919E-02   9.9091E+00  0.000E+00  0.000E+00  0.000E+00  1.07836E+03  6.368E-01  1.000E+01  2.500E-02  1.212E+00
   1    5    9     4     2    9.9091E+00  1.8158E-01   9.7275E+00  0.000E+00  0.000E+00  0.000E+00  1.07154E+03  6.315E-01  1.000E+01  5.000E-02  1.211E+00
   1    6    8     4     3    9.7275E+00  1.2689E-01   9.6006E+00  0.000E+00  0.000E+00  0.000E+00  1.06381E+03  6.256E-01  1.000E+01  3.500E-02  1.209E+00
   1    6    8     5     1    1.0432E+01  2.2686E-01   1.0205E+01  0.000E+00  0.000E+00  0.000E+00  1.05868E+03  6.790E-01  1.542E+01  6.166E-02  1.226E+00
   1    7    7     5     2    1.0205E+01  2.7894E-01   9.9265E+00  0.000E+00  0.000E+00  0.000E+00  1.05417E+03  6.732E-01  1.519E+01  7.594E-02  1.224E+00
   1    8    7     5     3    9.9265E+00  1.9221E-01   9.7343E+00  0.000E+00  0.000E+00  0.000E+00  1.04992E+03  6.676E-01  1.497E+01  5.241E-02  1.223E+00
   1    8    6     5     4    9.7343E+00  1.3577E-01   9.5985E+00  0.000E+00  0.000E+00  0.000E+00  1.04691E+03  6.637E-01  1.482E+01  3.706E-02  1.221E+00
   1    9    6     6     1    2.4276E+01  2.5176E-01   2.4024E+01  0.000E+00  0.000E+00  0.000E+00  1.04392E+03  1.196E+00  1.200E+01  6.000E-02  1.399E+00
   1   10    7     6     2    2.4024E+01  2.5131E-01   2.3773E+01  0.000E+00  0.000E+00  0.000E+00  1.03937E+03  1.188E+00  1.200E+01  6.000E-02  1.396E+00
   1   11    7     6     3    2.3773E+01  2.5086E-01   2.3522E+01  0.000E+00  0.000E+00  0.000E+00  1.03482E+03  1.181E+00  1.200E+01  6.000E-02  1.394E+00
   1   12    7     6     4    2.3522E+01  2.5041E-01   2.3271E+01  0.000E+00  0.000E+00  0.000E+00  1.03026E+03  1.173E+00  1.200E+01  6.000E-02  1.391E+00
   1   13    7     6     5    2.3271E+01 -1.1240E-02   2.3283E+01  0.000E+00  0.000E+00  0.000E+00  1.02708E+03  1.170E+00  1.200E+01  2.400E-01 -1.561E-02
   1   14    9     7     1    1.5000E+02  1.3337E+00   1.4867E+02  0.000E+00  0.000E+00  0.000E+00  1.03987E+03  2.288E+00  5.529E+01  5.593E-01  7.948E-01
   1   13    8     7     2    1.4867E+02  1.8194E+00   1.4685E+02  0.000E+00  0.000E+00  0.000E+00  1.03478E+03  2.279E+00  5.526E+01  6.148E-01  9.865E-01
   1   13    7     7     3    1.4685E+02  1.4320E+00   1.4541E+02  0.000E+00  0.000E+00  0.000E+00  1.02969E+03  2.271E+00  5.522E+01  5.585E-01  8.547E-01
   1   13    6     8     1    1.6870E+02  8.7607E-01   1.6782E+02  0.000E+00  0.000E+00  0.000E+00  1.02482E+03  2.941E+00  4.264E+01  4.345E-01  6.720E-01
   1   13    5     8     2    1.6782E+02  1.3139E-01   1.6769E+02  0.000E+00  0.000E+00  0.000E+00  1.01856E+03  2.938E+00  4.259E+01  4.340E-01  1.009E-01
   1   13    4     8     3    1.6769E+02 -2.6031E+00   1.7029E+02  0.000E+00  0.000E+00  0.000E+00  1.01232E+03  2.946E+00  4.271E+01  4.352E+00 -1.994E-01
   1   13    3     8     4    1.7029E+02 -3.7294E+00   1.7402E+02  0.000E+00  0.000E+00  0.000E+00  1.00609E+03  2.966E+00  4.301E+01  4.383E+00 -2.836E-01
   1   13    2     8     5    1.7402E+02 -2.5993E+00   1.7662E+02  0.000E+00  0.000E+00  0.000E+00  9.99862E+02  2.987E+00  4.330E+01  4.413E+00 -1.963E-01
   1   13    1     8     6    1.7662E+02 -1.9920E+00   1.7861E+02  0.000E+00  0.000E+00  0.000E+00  9.94876E+02  3.001E+00  4.352E+01  2.661E+00 -2.496E-01
   1    8    6     9     1    0.0000E+00  0.0000E+00   0.0000E+00  0.000E+00  0.000E+00  0.000E+00  1.07875E+03  0.000E+00  4.000E+00  0.000E+00  1.000E+00
   1    8    5     9     2    0.0000E+00  0.0000E+00   0.0000E+00  0.000E+00  0.000E+00  0.000E+00  1.07825E+03  0.000E+00  4.000E+00  0.000E+00  1.000E+00





UNSATURATED ZONE PACKAGE VOLUMETRIC BUDGET FOR  TIME STEP    30 STRESS PERIOD   14
  ------------------------------------------------------------------------------



     CUMULATIVE VOLUMES      L**3       RATES FOR THIS TIME STEP      L**3/T
     ------------------                 ------------------------

           IN:                                      IN:
           ---                                      ---
        INFILTRATION =   180946962.2375          INFILTRATION =           0.8475

          OUT:                                     OUT:
          ----                                     ----
              UZF ET =    94260180.9624                UZF ET =           0.0378
        UZF RECHARGE =     9106152.2200          UZF RECHARGE =           0.0590

            IN - OUT =    77580629.0550              IN - OUT =           0.7507

          STORAGE:                                 STORAGE:
          --------                                 --------
      STORAGE CHANGE =    77654347.9189        STORAGE CHANGE =           0.7507

 PERCENT DISCREPANCY IS DIFFERENCE BETWEEN IN-OUT MINUS CHANGE IN STORAGE
 DIVIDED BY THE AVERAGE OF IN AND OUT TIMES 100

 PERCENT DISCREPANCY =          -0.01     PERCENT DISCREPANCY =          -0.00






1
  VOLUMETRIC BUDGET FOR ENTIRE MODEL AT END OF TIME STEP   30, STRESS PERIOD  14
  ------------------------------------------------------------------------------

     CUMULATIVE VOLUMES      L**3       RATES FOR THIS TIME STEP      L**3/T
     ------------------                 ------------------------

           IN:                                      IN:
           ---                                      ---
               AWU WELLS =    83320120.0000                 AWU WELLS =           0.0000
      DIVERSION SEGMENTS =    68598824.0000        DIVERSION SEGMENTS =           0.0000
           GW IRRIGATION =           0.0000             GW IRRIGATION =           0.0000
           SW IRRIGATION =           0.0000             SW IRRIGATION =           0.0000
        SYSTEM LOSSES GW =           0.0000          SYSTEM LOSSES GW =           0.0000
        SYSTEM LOSSES SW =           0.0000          SYSTEM LOSSES SW =           0.0000

                TOTAL IN =   151918944.0000                  TOTAL IN =           0.0000

          OUT:                                     OUT:
          ----                                     ----
               AWU WELLS =           0.0000                 AWU WELLS =           0.0000
      DIVERSION SEGMENTS =           0.0000        DIVERSION SEGMENTS =           0.0000
           GW IRRIGATION =    83320120.0000             GW IRRIGATION =           0.0000
           SW IRRIGATION =    68600184.0000             SW IRRIGATION =           0.0000
        SYSTEM LOSSES GW =           0.0000          SYSTEM LOSSES GW =           0.0000
        SYSTEM LOSSES SW =           0.0000          SYSTEM LOSSES SW =           0.0000

               TOTAL OUT =   151920304.0000                 TOTAL OUT =           0.0000

                IN - OUT =       -1360.0000                  IN - OUT =           0.0000

     PERCENT DISCREPANCY =          -0.00         PERCENT DISCREPANCY =           0.00



1
  VOLUMETRIC BUDGET FOR ENTIRE MODEL AT END OF TIME STEP   30, STRESS PERIOD  14
  ------------------------------------------------------------------------------

     CUMULATIVE VOLUMES      L**3       RATES FOR THIS TIME STEP      L**3/T
     ------------------                 ------------------------

           IN:                                      IN:
           ---                                      ---
             STORAGE     =   163989936.0000               STORAGE     =           1.0436
       CONSTANT HEAD     =           0.0000         CONSTANT HEAD     =           0.0000
     HEAD DEP BOUNDS     =     9784852.0000       HEAD DEP BOUNDS     =           0.2856
      STREAM LEAKAGE     =   430356992.0000        STREAM LEAKAGE     =          11.3212
        UZF RECHARGE     =     9106147.0000          UZF RECHARGE     =       5.8985E-02
               GW ET     =           0.0000                 GW ET     =           0.0000
     SURFACE LEAKAGE     =           0.0000       SURFACE LEAKAGE     =           0.0000
           AWU WELLS     =           0.0000             AWU WELLS     =           0.0000

                TOTAL IN =   613237952.0000                  TOTAL IN =          12.7094

          OUT:                                     OUT:
          ----                                     ----
             STORAGE     =   137070800.0000               STORAGE     =           1.4750
       CONSTANT HEAD     =           0.0000         CONSTANT HEAD     =           0.0000
     HEAD DEP BOUNDS     =     9929752.0000       HEAD DEP BOUNDS     =           0.2897
      STREAM LEAKAGE     =   328073536.0000        STREAM LEAKAGE     =          10.9351
        UZF RECHARGE     =           0.0000          UZF RECHARGE     =           0.0000
               GW ET     =    54852740.0000                 GW ET     =       9.6548E-03
     SURFACE LEAKAGE     =           0.0000       SURFACE LEAKAGE     =           0.0000
           AWU WELLS     =    83320120.0000             AWU WELLS     =           0.0000

               TOTAL OUT =   613246912.0000                 TOTAL OUT =          12.7095

                IN - OUT =       -8960.0000                  IN - OUT =      -5.1498E-05

     PERCENT DISCREPANCY =          -0.00         PERCENT DISCREPANCY =          -0.00






         TIME SUMMARY AT END OF TIME STEP   30 IN STRESS PERIOD   14
                    SECONDS     MINUTES      HOURS       DAYS        YEARS
                    -----------------------------------------------------------
   TIME STEP LENGTH  87600.      1460.0      24.333      1.0139     2.77588E-03
 STRESS PERIOD TIME 2.62800E+06  43800.      730.00      30.417     8.32763E-02
         TOTAL TIME 3.42504E+07 5.70840E+05  9514.0      396.42      1.0853    
1
1
                            STRESS PERIOD NO.   15, LENGTH =   2628000.    
                            -----------------------------------------------

                              NUMBER OF TIME STEPS =    30

                               MULTIPLIER FOR DELT =     1.000

                            INITIAL TIME STEP SIZE =   87600.00    

 REUSING NON-PARAMETER GHB CELLS FROM LAST STRESS PERIOD

      2 GHB CELLS

 REUSING STREAM SEGMENT DATA FROM LAST STRESS PERIOD



            AREAL INFILTRATION RATE
 READING ON UNIT   19 WITH FORMAT: (10F4.0)            

            1           2           3           4           5           6           7           8           9          10
 ........................................................................................................................
   1   1.0000E-10  2.0000E-10   0.000       0.000       0.000       0.000       0.000       0.000       0.000       0.000    
   2   2.0000E-10  1.0000E-10  2.0000E-10   0.000       0.000      8.0000E-10  8.0000E-10  5.0000E-10   0.000       0.000    
   3    0.000      5.0000E-10  1.0000E-10  1.0000E-10  8.0000E-10  8.0000E-10  5.0000E-10  5.0000E-10   0.000       0.000    
   4   8.0000E-10  5.0000E-10  1.0000E-10  1.0000E-10  1.0000E-10  1.0000E-10  1.0000E-10  1.0000E-10  2.0000E-10   0.000    
   5   8.0000E-10  5.0000E-10  1.0000E-10  1.0000E-10  1.0000E-10  1.0000E-10  1.0000E-10  1.0000E-10  1.0000E-10  1.0000E-10
   6   8.0000E-10  5.0000E-10  5.0000E-10  2.0000E-10  2.0000E-10  1.0000E-10  1.0000E-10  1.0000E-10  1.0000E-10  5.0000E-10
   7   8.0000E-10  5.0000E-10  5.0000E-10  2.0000E-10  2.0000E-10  1.0000E-10  1.0000E-10  2.0000E-10  2.0000E-10   0.000    
   8    0.000      5.0000E-10  5.0000E-10  2.0000E-10  2.0000E-10  1.0000E-10  1.0000E-10  2.0000E-10  5.0000E-10   0.000    
   9    0.000      5.0000E-10  5.0000E-10  2.0000E-10  2.0000E-10  1.0000E-10  1.0000E-10  2.0000E-10  5.0000E-10   0.000    
  10    0.000      5.0000E-10  5.0000E-10  2.0000E-10  2.0000E-10  1.0000E-10  1.0000E-10  2.0000E-10  5.0000E-10  8.0000E-10
  11    0.000      1.0000E-10  1.0000E-10  1.0000E-10  1.0000E-10  1.0000E-10  1.0000E-10  2.0000E-10  5.0000E-10   0.000    
  12   1.0000E-10  1.0000E-10  1.0000E-10  1.0000E-10  1.0000E-10  1.0000E-10  1.0000E-10  1.0000E-10  2.0000E-10   0.000    
  13   1.0000E-10  1.0000E-10  2.0000E-10  2.0000E-10  2.0000E-10  2.0000E-10  2.0000E-10  1.0000E-10  1.0000E-10   0.000    
  14    0.000      2.0000E-10  5.0000E-10  5.0000E-10  5.0000E-10  5.0000E-10  5.0000E-10  2.0000E-10  1.0000E-10   0.000    
  15    0.000       0.000      8.0000E-10  8.0000E-10  8.0000E-10  8.0000E-10   0.000       0.000       0.000       0.000    

                  ET RATE =  1.000000E-10

 USING ET EXTINCTION DEPTH FROM PREVIOUS STRESS PERIOD. CURRENT PERIOD IS:      15

 USING EXTINCTION WATER CONTENT FROM PREVIOUS STRESS PERIOD. CURRENT PERIOD IS:      15

 PROCESSING AWU STRESS PERIOD DATA

 READING AWU STRESS PERIOD DATA

 READING IRRIGATION STREAM

 READING IRRIGATION WELL

 READING SUPPLEMENTAL WEL

 END PROCESSING AWU STRESS PERIOD DATA OPTIONS
 
 SOLVING FOR HEAD 
                                                   Max.-Head-Change                         Max.-Flux-Residual
  Residual-Control   Outer-Iter.   Inner-Iter.     Column Row Layer    Maximum-Head-Change  Column Row Layer    Maximum-Flux-Residual          L2-NORM 
          0                 1           2             4    7     1       0.2585681656E-02       4    7    1         0.1356753410E+00      0.3642238040E+00
          0                 2           2             4    7     1      -0.2515164512E-03       4    7    1        -0.1356754329E-01      0.3504794287E-01
          0                 3           1             1    2     1       0.1881819783E-04       4    7    1         0.9497283656E-03      0.2487319803E-02

    ------------------------------------------------
       NWT REQUIRED            3 OUTER ITERATIONS 
       AND A TOTAL OF          5 INNER ITERATIONS.
    ------------------------------------------------

 NO OUTPUT CONTROL FOR STRESS PERIOD   15   TIME STEP    1
 
 SOLVING FOR HEAD 
                                                   Max.-Head-Change                         Max.-Flux-Residual
  Residual-Control   Outer-Iter.   Inner-Iter.     Column Row Layer    Maximum-Head-Change  Column Row Layer    Maximum-Flux-Residual          L2-NORM 
          0                 1           2             4    7     1       0.2562425187E-02       4    7    1         0.1344490366E+00      0.3603680817E+00
          0                 2           2             4    7     1      -0.2492542279E-03       4    7    1        -0.1344491265E-01      0.3461838381E-01
          0                 3           1             1    2     1       0.1879148347E-04       4    7    1         0.9411442095E-03      0.2457807511E-02

    ------------------------------------------------
       NWT REQUIRED            3 OUTER ITERATIONS 
       AND A TOTAL OF          5 INNER ITERATIONS.
    ------------------------------------------------

 NO OUTPUT CONTROL FOR STRESS PERIOD   15   TIME STEP    2
 
 SOLVING FOR HEAD 
                                                   Max.-Head-Change                         Max.-Flux-Residual
  Residual-Control   Outer-Iter.   Inner-Iter.     Column Row Layer    Maximum-Head-Change  Column Row Layer    Maximum-Flux-Residual          L2-NORM 
          0                 1           2             4    7     1       0.2539821257E-02       4    7    1         0.1332571195E+00      0.3613188590E+00
          0                 2           2             4    7     1      -0.2470554790E-03       4    7    1        -0.1332572074E-01      0.3463406332E-01
          0                 3           1             1    2     1       0.1876982560E-04       4    7    1         0.9328007704E-03      0.2453633493E-02

    ------------------------------------------------
       NWT REQUIRED            3 OUTER ITERATIONS 
       AND A TOTAL OF          5 INNER ITERATIONS.
    ------------------------------------------------

 NO OUTPUT CONTROL FOR STRESS PERIOD   15   TIME STEP    3
 
 SOLVING FOR HEAD 
                                                   Max.-Head-Change                         Max.-Flux-Residual
  Residual-Control   Outer-Iter.   Inner-Iter.     Column Row Layer    Maximum-Head-Change  Column Row Layer    Maximum-Flux-Residual          L2-NORM 
          0                 1           2             4    7     1       0.2517032017E-02       4    7    1         0.1320545870E+00      0.3583328627E+00
          0                 2           2             4    7     1      -0.2448387047E-03       4    7    1        -0.1320546729E-01      0.3429208221E-01
          0                 3           1             1    2     1       0.1874666057E-04       4    7    1         0.9243830359E-03      0.2434250910E-02

    ------------------------------------------------
       NWT REQUIRED            3 OUTER ITERATIONS 
       AND A TOTAL OF          5 INNER ITERATIONS.
    ------------------------------------------------

 NO OUTPUT CONTROL FOR STRESS PERIOD   15   TIME STEP    4
 
 SOLVING FOR HEAD 
                                                   Max.-Head-Change                         Max.-Flux-Residual
  Residual-Control   Outer-Iter.   Inner-Iter.     Column Row Layer    Maximum-Head-Change  Column Row Layer    Maximum-Flux-Residual          L2-NORM 
          0                 1           2             4    7     1       0.2494894103E-02       4    7    1         0.1308869140E+00      0.3554935143E+00
          0                 2           2             4    7     1      -0.2426852867E-03       4    7    1        -0.1308869983E-01      0.3400434271E-01
          0                 3           1             1    2     1       0.1872361509E-04       4    7    1         0.9162093063E-03      0.2414670054E-02

    ------------------------------------------------
       NWT REQUIRED            3 OUTER ITERATIONS 
       AND A TOTAL OF          5 INNER ITERATIONS.
    ------------------------------------------------

 NO OUTPUT CONTROL FOR STRESS PERIOD   15   TIME STEP    5
 
 SOLVING FOR HEAD 
                                                   Max.-Head-Change                         Max.-Flux-Residual
  Residual-Control   Outer-Iter.   Inner-Iter.     Column Row Layer    Maximum-Head-Change  Column Row Layer    Maximum-Flux-Residual          L2-NORM 
          0                 1           2             4    7     1       0.2473111542E-02       4    7    1         0.1297382123E+00      0.3527680674E+00
          0                 2           2             4    7     1      -0.2405664344E-03       4    7    1        -0.1297382947E-01      0.3372806142E-01
          0                 3           1             1    2     1       0.1870068541E-04       4    7    1         0.9081683581E-03      0.2395718043E-02

    ------------------------------------------------
       NWT REQUIRED            3 OUTER ITERATIONS 
       AND A TOTAL OF          5 INNER ITERATIONS.
    ------------------------------------------------

 NO OUTPUT CONTROL FOR STRESS PERIOD   15   TIME STEP    6
 
 SOLVING FOR HEAD 
                                                   Max.-Head-Change                         Max.-Flux-Residual
  Residual-Control   Outer-Iter.   Inner-Iter.     Column Row Layer    Maximum-Head-Change  Column Row Layer    Maximum-Flux-Residual          L2-NORM 
          0                 1           2             4    7     1       0.2451403375E-02       4    7    1         0.1285931240E+00      0.3501392423E+00
          0                 2           2             4    7     1      -0.2384548197E-03       4    7    1        -0.1285932048E-01      0.3346102332E-01
          0                 3           1             1    2     1       0.1867787053E-04       4    7    1         0.9001527492E-03      0.2377036626E-02

    ------------------------------------------------
       NWT REQUIRED            3 OUTER ITERATIONS 
       AND A TOTAL OF          5 INNER ITERATIONS.
    ------------------------------------------------

 NO OUTPUT CONTROL FOR STRESS PERIOD   15   TIME STEP    7
 
 SOLVING FOR HEAD 
                                                   Max.-Head-Change                         Max.-Flux-Residual
  Residual-Control   Outer-Iter.   Inner-Iter.     Column Row Layer    Maximum-Head-Change  Column Row Layer    Maximum-Flux-Residual          L2-NORM 
          0                 1           2             4    7     1       0.2430313970E-02       4    7    1         0.1274815464E+00      0.3476120368E+00
          0                 2           2             4    7     1      -0.2364033932E-03       4    7    1        -0.1274816254E-01      0.3320422418E-01
          0                 3           1             1    2     1       0.1865579223E-04       4    7    1         0.8923717064E-03      0.2359810216E-02

    ------------------------------------------------
       NWT REQUIRED            3 OUTER ITERATIONS 
       AND A TOTAL OF          5 INNER ITERATIONS.
    ------------------------------------------------

 NO OUTPUT CONTROL FOR STRESS PERIOD   15   TIME STEP    8
 
 SOLVING FOR HEAD 
                                                   Max.-Head-Change                         Max.-Flux-Residual
  Residual-Control   Outer-Iter.   Inner-Iter.     Column Row Layer    Maximum-Head-Change  Column Row Layer    Maximum-Flux-Residual          L2-NORM 
          0                 1           2             4    7     1       0.2409276335E-02       4    7    1         0.1263724246E+00      0.3451637156E+00
          0                 2           2             4    7     1      -0.2343570023E-03       4    7    1        -0.1263725020E-01      0.3295322484E-01
          0                 3           1             1    2     1       0.1863424141E-04       4    7    1         0.8846078156E-03      0.2342769392E-02

    ------------------------------------------------
       NWT REQUIRED            3 OUTER ITERATIONS 
       AND A TOTAL OF          5 INNER ITERATIONS.
    ------------------------------------------------

 NO OUTPUT CONTROL FOR STRESS PERIOD   15   TIME STEP    9
 
 SOLVING FOR HEAD 
                                                   Max.-Head-Change                         Max.-Flux-Residual
  Residual-Control   Outer-Iter.   Inner-Iter.     Column Row Layer    Maximum-Head-Change  Column Row Layer    Maximum-Flux-Residual          L2-NORM 
          0                 1           2             4    7     1       0.2388574979E-02       4    7    1         0.1252808144E+00      0.3428101279E+00
          0                 2           2             4    7     1      -0.2323433229E-03       4    7    1        -0.1252808903E-01      0.3271199429E-01
          0                 3           1             1    2     1       0.1861251926E-04       4    7    1         0.8769665449E-03      0.2326105342E-02

    ------------------------------------------------
       NWT REQUIRED            3 OUTER ITERATIONS 
       AND A TOTAL OF          5 INNER ITERATIONS.
    ------------------------------------------------

 NO OUTPUT CONTROL FOR STRESS PERIOD   15   TIME STEP   10
 
 SOLVING FOR HEAD 
                                                   Max.-Head-Change                         Max.-Flux-Residual
  Residual-Control   Outer-Iter.   Inner-Iter.     Column Row Layer    Maximum-Head-Change  Column Row Layer    Maximum-Flux-Residual          L2-NORM 
          0                 1           2             4    7     1       0.2367929776E-02       4    7    1         0.1241918278E+00      0.3404918516E+00
          0                 2           2             4    7     1      -0.2303351047E-03       4    7    1        -0.1241919018E-01      0.3247525765E-01
          0                 3           1             1    2     1       0.1859070758E-04       4    7    1         0.8693436203E-03      0.2309784331E-02

    ------------------------------------------------
       NWT REQUIRED            3 OUTER ITERATIONS 
       AND A TOTAL OF          5 INNER ITERATIONS.
    ------------------------------------------------

 NO OUTPUT CONTROL FOR STRESS PERIOD   15   TIME STEP   11
 
 SOLVING FOR HEAD 
                                                   Max.-Head-Change                         Max.-Flux-Residual
  Residual-Control   Outer-Iter.   Inner-Iter.     Column Row Layer    Maximum-Head-Change  Column Row Layer    Maximum-Flux-Residual          L2-NORM 
          0                 1           2             4    7     1       0.2347886702E-02       4    7    1         0.1231354060E+00      0.3382518953E+00
          0                 2           2             4    7     1      -0.2283854583E-03       4    7    1        -0.1231354787E-01      0.3224644513E-01
          0                 3           1             1    2     1       0.1856900419E-04       4    7    1         0.8619486537E-03      0.2293965871E-02

    ------------------------------------------------
       NWT REQUIRED            3 OUTER ITERATIONS 
       AND A TOTAL OF          5 INNER ITERATIONS.
    ------------------------------------------------

 NO OUTPUT CONTROL FOR STRESS PERIOD   15   TIME STEP   12
 
 SOLVING FOR HEAD 
                                                   Max.-Head-Change                         Max.-Flux-Residual
  Residual-Control   Outer-Iter.   Inner-Iter.     Column Row Layer    Maximum-Head-Change  Column Row Layer    Maximum-Flux-Residual          L2-NORM 
          0                 1           2             4    7     1       0.2327879018E-02       4    7    1         0.1220805762E+00      0.3360542198E+00
          0                 2           2             4    7     1      -0.2264392539E-03       4    7    1        -0.1220806475E-01      0.3202246720E-01
          0                 3           1             1    2     1       0.1854740611E-04       4    7    1         0.8545648370E-03      0.2278878543E-02

    ------------------------------------------------
       NWT REQUIRED            3 OUTER ITERATIONS 
       AND A TOTAL OF          5 INNER ITERATIONS.
    ------------------------------------------------

 NO OUTPUT CONTROL FOR STRESS PERIOD   15   TIME STEP   13
 
 SOLVING FOR HEAD 
                                                   Max.-Head-Change                         Max.-Flux-Residual
  Residual-Control   Outer-Iter.   Inner-Iter.     Column Row Layer    Maximum-Head-Change  Column Row Layer    Maximum-Flux-Residual          L2-NORM 
          0                 1           2             4    7     1       0.2308454678E-02       4    7    1         0.1210572343E+00      0.3339142105E+00
          0                 2           2             4    7     1      -0.2245497930E-03       4    7    1        -0.1210573040E-01      0.3180385177E-01
          0                 3           1             1    2     1       0.1852591531E-04       4    7    1         0.8474014285E-03      0.2263933806E-02

    ------------------------------------------------
       NWT REQUIRED            3 OUTER ITERATIONS 
       AND A TOTAL OF          5 INNER ITERATIONS.
    ------------------------------------------------

 NO OUTPUT CONTROL FOR STRESS PERIOD   15   TIME STEP   14
 
 SOLVING FOR HEAD 
                                                   Max.-Head-Change                         Max.-Flux-Residual
  Residual-Control   Outer-Iter.   Inner-Iter.     Column Row Layer    Maximum-Head-Change  Column Row Layer    Maximum-Flux-Residual          L2-NORM 
          0                 1           2             4    7     1       0.2289053801E-02       4    7    1         0.1200345095E+00      0.3318120045E+00
          0                 2           2             4    7     1      -0.2226626149E-03       4    7    1        -0.1200345779E-01      0.3158867280E-01
          0                 3           1             1    2     1       0.1850453007E-04       4    7    1         0.8402423480E-03      0.2249113371E-02

    ------------------------------------------------
       NWT REQUIRED            3 OUTER ITERATIONS 
       AND A TOTAL OF          5 INNER ITERATIONS.
    ------------------------------------------------

 NO OUTPUT CONTROL FOR STRESS PERIOD   15   TIME STEP   15
 
 SOLVING FOR HEAD 
                                                   Max.-Head-Change                         Max.-Flux-Residual
  Residual-Control   Outer-Iter.   Inner-Iter.     Column Row Layer    Maximum-Head-Change  Column Row Layer    Maximum-Flux-Residual          L2-NORM 
          0                 1           2             4    7     1       0.2269951838E-02       4    7    1         0.1190278281E+00      0.3297479810E+00
          0                 2           2             4    7     1      -0.2208045126E-03       4    7    1        -0.1190278949E-01      0.3137722306E-01
          0                 3           1             1    2     1       0.1848324737E-04       4    7    1         0.8331955664E-03      0.2234528503E-02

    ------------------------------------------------
       NWT REQUIRED            3 OUTER ITERATIONS 
       AND A TOTAL OF          5 INNER ITERATIONS.
    ------------------------------------------------

 NO OUTPUT CONTROL FOR STRESS PERIOD   15   TIME STEP   16
 
 SOLVING FOR HEAD 
                                                   Max.-Head-Change                         Max.-Flux-Residual
  Residual-Control   Outer-Iter.   Inner-Iter.     Column Row Layer    Maximum-Head-Change  Column Row Layer    Maximum-Flux-Residual          L2-NORM 
          0                 1           2             4    7     1       0.2251143484E-02       4    7    1         0.1180366567E+00      0.3277237096E+00
          0                 2           2             4    7     1      -0.2189749706E-03       4    7    1        -0.1180367222E-01      0.3116972811E-01
          0                 3           1             1    2     1       0.1846206747E-04       4    7    1         0.8262573492E-03      0.2220226685E-02

    ------------------------------------------------
       NWT REQUIRED            3 OUTER ITERATIONS 
       AND A TOTAL OF          5 INNER ITERATIONS.
    ------------------------------------------------

 NO OUTPUT CONTROL FOR STRESS PERIOD   15   TIME STEP   17
 
 SOLVING FOR HEAD 
                                                   Max.-Head-Change                         Max.-Flux-Residual
  Residual-Control   Outer-Iter.   Inner-Iter.     Column Row Layer    Maximum-Head-Change  Column Row Layer    Maximum-Flux-Residual          L2-NORM 
          0                 1           2             4    7     1       0.2232617718E-02       4    7    1         0.1170607203E+00      0.3257368087E+00
          0                 2           2             4    7     1      -0.2171729171E-03       4    7    1        -0.1170607847E-01      0.3096589160E-01
          0                 3           1             1    2     1       0.1844099036E-04       4    7    1         0.8194257898E-03      0.2206195284E-02

    ------------------------------------------------
       NWT REQUIRED            3 OUTER ITERATIONS 
       AND A TOTAL OF          5 INNER ITERATIONS.
    ------------------------------------------------

 NO OUTPUT CONTROL FOR STRESS PERIOD   15   TIME STEP   18
 
 SOLVING FOR HEAD 
                                                   Max.-Head-Change                         Max.-Flux-Residual
  Residual-Control   Outer-Iter.   Inner-Iter.     Column Row Layer    Maximum-Head-Change  Column Row Layer    Maximum-Flux-Residual          L2-NORM 
          0                 1           2             4    7     1       0.2214099484E-02       4    7    1         0.1160846208E+00      0.3237682295E+00
          0                 2           2             4    7     1      -0.2153715957E-03       4    7    1        -0.1160846838E-01      0.3076405635E-01
          0                 3           1             1    2     1       0.1842001305E-04       4    7    1         0.8125930663E-03      0.2192462855E-02

    ------------------------------------------------
       NWT REQUIRED            3 OUTER ITERATIONS 
       AND A TOTAL OF          5 INNER ITERATIONS.
    ------------------------------------------------

 NO OUTPUT CONTROL FOR STRESS PERIOD   15   TIME STEP   19
 
 SOLVING FOR HEAD 
                                                   Max.-Head-Change                         Max.-Flux-Residual
  Residual-Control   Outer-Iter.   Inner-Iter.     Column Row Layer    Maximum-Head-Change  Column Row Layer    Maximum-Flux-Residual          L2-NORM 
          0                 1           2             4    7     1       0.2196139723E-02       4    7    1         0.1151385644E+00      0.3218440206E+00
          0                 2           2             4    7     1      -0.2136245988E-03       4    7    1        -0.1151386261E-01      0.3056618384E-01
          0                 3           1             1    2     1       0.1839913628E-04       4    7    1         0.8059706668E-03      0.2178729768E-02

    ------------------------------------------------
       NWT REQUIRED            3 OUTER ITERATIONS 
       AND A TOTAL OF          5 INNER ITERATIONS.
    ------------------------------------------------

 NO OUTPUT CONTROL FOR STRESS PERIOD   15   TIME STEP   20
 
 SOLVING FOR HEAD 
                                                   Max.-Head-Change                         Max.-Flux-Residual
  Residual-Control   Outer-Iter.   Inner-Iter.     Column Row Layer    Maximum-Head-Change  Column Row Layer    Maximum-Flux-Residual          L2-NORM 
          0                 1           2             4    7     1       0.2178171383E-02       4    7    1         0.1141918339E+00      0.3199438857E+00
          0                 2           2             4    7     1      -0.2118767676E-03       4    7    1        -0.1141918945E-01      0.3037075560E-01
          0                 3           1             1    2     1       0.1837835780E-04       4    7    1         0.7993435468E-03      0.2165202597E-02

    ------------------------------------------------
       NWT REQUIRED            3 OUTER ITERATIONS 
       AND A TOTAL OF          5 INNER ITERATIONS.
    ------------------------------------------------

 NO OUTPUT CONTROL FOR STRESS PERIOD   15   TIME STEP   21
 
 SOLVING FOR HEAD 
                                                   Max.-Head-Change                         Max.-Flux-Residual
  Residual-Control   Outer-Iter.   Inner-Iter.     Column Row Layer    Maximum-Head-Change  Column Row Layer    Maximum-Flux-Residual          L2-NORM 
          0                 1           2             4    7     1       0.2160479635E-02       4    7    1         0.1132594844E+00      0.3180815357E+00
          0                 2           2             4    7     1      -0.2101558416E-03       4    7    1        -0.1132595438E-01      0.3017904528E-01
          0                 3           1             1    2     1       0.1835767687E-04       4    7    1         0.7928171060E-03      0.2151994198E-02

    ------------------------------------------------
       NWT REQUIRED            3 OUTER ITERATIONS 
       AND A TOTAL OF          5 INNER ITERATIONS.
    ------------------------------------------------

 NO OUTPUT CONTROL FOR STRESS PERIOD   15   TIME STEP   22
 
 SOLVING FOR HEAD 
                                                   Max.-Head-Change                         Max.-Flux-Residual
  Residual-Control   Outer-Iter.   Inner-Iter.     Column Row Layer    Maximum-Head-Change  Column Row Layer    Maximum-Flux-Residual          L2-NORM 
          0                 1           2             4    7     1       0.2143325336E-02       4    7    1         0.1123563133E+00      0.3162541216E+00
          0                 2           2             4    7     1      -0.2084871940E-03       4    7    1        -0.1123563714E-01      0.2999090478E-01
          0                 3           1             1    2     1       0.1833709173E-04       4    7    1         0.7864948877E-03      0.2138993577E-02

    ------------------------------------------------
       NWT REQUIRED            3 OUTER ITERATIONS 
       AND A TOTAL OF          5 INNER ITERATIONS.
    ------------------------------------------------

 NO OUTPUT CONTROL FOR STRESS PERIOD   15   TIME STEP   23
 
 SOLVING FOR HEAD 
                                                   Max.-Head-Change                         Max.-Flux-Residual
  Residual-Control   Outer-Iter.   Inner-Iter.     Column Row Layer    Maximum-Head-Change  Column Row Layer    Maximum-Flux-Residual          L2-NORM 
          0                 1           2             4    7     1       0.2126144775E-02       4    7    1         0.1114513766E+00      0.3144410579E+00
          0                 2           2             4    7     1      -0.2068159923E-03       4    7    1        -0.1114514337E-01      0.2980403343E-01
          0                 3           1             1    2     1       0.1831660188E-04       4    7    1         0.7801603133E-03      0.2126078644E-02

    ------------------------------------------------
       NWT REQUIRED            3 OUTER ITERATIONS 
       AND A TOTAL OF          5 INNER ITERATIONS.
    ------------------------------------------------

 NO OUTPUT CONTROL FOR STRESS PERIOD   15   TIME STEP   24
 
 SOLVING FOR HEAD 
                                                   Max.-Head-Change                         Max.-Flux-Residual
  Residual-Control   Outer-Iter.   Inner-Iter.     Column Row Layer    Maximum-Head-Change  Column Row Layer    Maximum-Flux-Residual          L2-NORM 
          0                 1           2             4    7     1       0.2108945890E-02       4    7    1         0.1105450771E+00      0.3126520945E+00
          0                 2           2             4    7     1      -0.2051430085E-03       4    7    1        -0.1105451333E-01      0.2961941244E-01
          0                 3           1             1    2     1       0.1829620883E-04       4    7    1         0.7738162180E-03      0.2113354397E-02

    ------------------------------------------------
       NWT REQUIRED            3 OUTER ITERATIONS 
       AND A TOTAL OF          5 INNER ITERATIONS.
    ------------------------------------------------

 NO OUTPUT CONTROL FOR STRESS PERIOD   15   TIME STEP   25
 
 SOLVING FOR HEAD 
                                                   Max.-Head-Change                         Max.-Flux-Residual
  Residual-Control   Outer-Iter.   Inner-Iter.     Column Row Layer    Maximum-Head-Change  Column Row Layer    Maximum-Flux-Residual          L2-NORM 
          0                 1           2             4    7     1       0.2092280727E-02       4    7    1         0.1096674800E+00      0.3108943308E+00
          0                 2           2             4    7     1      -0.2035219408E-03       4    7    1        -0.1096675348E-01      0.2943682502E-01
          0                 3           1             1    2     1       0.1827528579E-04       4    7    1         0.7676730427E-03      0.2100746850E-02

    ------------------------------------------------
       NWT REQUIRED            3 OUTER ITERATIONS 
       AND A TOTAL OF          5 INNER ITERATIONS.
    ------------------------------------------------

 NO OUTPUT CONTROL FOR STRESS PERIOD   15   TIME STEP   26
 
 SOLVING FOR HEAD 
                                                   Max.-Head-Change                         Max.-Flux-Residual
  Residual-Control   Outer-Iter.   Inner-Iter.     Column Row Layer    Maximum-Head-Change  Column Row Layer    Maximum-Flux-Residual          L2-NORM 
          0                 1           2             4    7     1       0.2075856210E-02       4    7    1         0.1088027503E+00      0.3091470675E+00
          0                 2           2             4    7     1      -0.2019242814E-03       4    7    1        -0.1088028042E-01      0.2925855711E-01
          0                 3           1             1    2     1       0.1825507882E-04       4    7    1         0.7616199073E-03      0.2088196638E-02

    ------------------------------------------------
       NWT REQUIRED            3 OUTER ITERATIONS 
       AND A TOTAL OF          5 INNER ITERATIONS.
    ------------------------------------------------

 NO OUTPUT CONTROL FOR STRESS PERIOD   15   TIME STEP   27
 
 SOLVING FOR HEAD 
                                                   Max.-Head-Change                         Max.-Flux-Residual
  Residual-Control   Outer-Iter.   Inner-Iter.     Column Row Layer    Maximum-Head-Change  Column Row Layer    Maximum-Flux-Residual          L2-NORM 
          0                 1           2             4    7     1       0.2059395568E-02       4    7    1         0.1079356805E+00      0.3074133065E+00
          0                 2           2             4    7     1      -0.2003231083E-03       4    7    1        -0.1079357335E-01      0.2907878488E-01
          0                 3           1             1    2     1       0.1823496314E-04       4    7    1         0.7555504051E-03      0.2076316338E-02

    ------------------------------------------------
       NWT REQUIRED            3 OUTER ITERATIONS 
       AND A TOTAL OF          5 INNER ITERATIONS.
    ------------------------------------------------

 NO OUTPUT CONTROL FOR STRESS PERIOD   15   TIME STEP   28
 
 SOLVING FOR HEAD 
                                                   Max.-Head-Change                         Max.-Flux-Residual
  Residual-Control   Outer-Iter.   Inner-Iter.     Column Row Layer    Maximum-Head-Change  Column Row Layer    Maximum-Flux-Residual          L2-NORM 
          0                 1           2             4    7     1       0.2043180738E-02       4    7    1         0.1070815630E+00      0.3057248490E+00
          0                 2           2             4    7     1      -0.1987458464E-03       4    7    1        -0.1070816149E-01      0.2890396872E-01
          0                 3           1             1    2     1       0.1821494050E-04       4    7    1         0.7495715795E-03      0.2064207821E-02

    ------------------------------------------------
       NWT REQUIRED            3 OUTER ITERATIONS 
       AND A TOTAL OF          5 INNER ITERATIONS.
    ------------------------------------------------

 NO OUTPUT CONTROL FOR STRESS PERIOD   15   TIME STEP   29
 
 SOLVING FOR HEAD 
                                                   Max.-Head-Change                         Max.-Flux-Residual
  Residual-Control   Outer-Iter.   Inner-Iter.     Column Row Layer    Maximum-Head-Change  Column Row Layer    Maximum-Flux-Residual          L2-NORM 
          0                 1           2             4   13     1       0.2693948990E-01       4   13    1         0.1558830011E+01      0.2810855880E+01
          0                 2           2             4   13     1      -0.2591005677E-02       4   13    1        -0.1541575263E+00      0.2684560371E+00
          0                 3           2             4   13     1       0.1737082001E-03       4   13    1         0.1062633248E-01      0.1798061170E-01
          0                 4           1             4   13     1      -0.6739122455E-05       4   13    1        -0.4239347636E-03      0.6854850610E-03

    ------------------------------------------------
       NWT REQUIRED            4 OUTER ITERATIONS 
       AND A TOTAL OF          7 INNER ITERATIONS.
    ------------------------------------------------

 NO OUTPUT CONTROL FOR STRESS PERIOD   15   TIME STEP   30



 STREAM LISTING     PERIOD     15   STEP       30

 LAYER ROW COL. STREAM  RCH.  FLOW INTO     FLOW TO   FLOW OUT OF   OVRLND.     DIRECT     STREAM       STREAM     STREAM     STREAM   STREAMBED  STREAMBED
                SEG.NO.  NO.  STRM. RCH.    AQUIFER    STRM. RCH.    RUNOFF     PRECIP       ET          HEAD       DEPTH      WIDTH   CONDCTNC.   GRADIENT

   1    1    1     1     1    8.9913E+01  4.5469E-01   8.9459E+01  0.000E+00  0.000E+00  0.000E+00  1.09481E+03  1.761E+00  2.122E+01  9.549E-02  1.587E+00
   1    2    2     1     2    8.9459E+01  7.0544E-01   8.8753E+01  0.000E+00  0.000E+00  0.000E+00  1.08982E+03  1.759E+00  2.118E+01  1.482E-01  1.586E+00
   1    3    3     1     3    8.8753E+01  6.0286E-01   8.8150E+01  0.000E+00  0.000E+00  0.000E+00  1.08418E+03  1.757E+00  2.112E+01  1.267E-01  1.586E+00
   1    3    4     1     4    8.8150E+01  5.5617E-01   8.7594E+01  0.000E+00  0.000E+00  0.000E+00  1.07916E+03  1.754E+00  2.108E+01  1.170E-01  1.585E+00
   1    4    5     2     1    8.5594E+01  4.3081E-01   8.5163E+01  0.000E+00  0.000E+00  0.000E+00  1.07446E+03  2.523E+00  1.200E+01  7.800E-02  1.841E+00
   1    5    6     2     2    8.5163E+01  3.3099E-01   8.4832E+01  0.000E+00  0.000E+00  0.000E+00  1.06903E+03  2.516E+00  1.200E+01  6.000E-02  1.839E+00
   1    6    6     2     3    8.4832E+01  3.3063E-01   8.4502E+01  0.000E+00  0.000E+00  0.000E+00  1.06430E+03  2.511E+00  1.200E+01  6.000E-02  1.837E+00
   1    7    6     2     4    8.4502E+01  3.3028E-01   8.4171E+01  0.000E+00  0.000E+00  0.000E+00  1.05958E+03  2.505E+00  1.200E+01  6.000E-02  1.835E+00
   1    8    6     2     5    8.4171E+01  3.2993E-01   8.3841E+01  0.000E+00  0.000E+00  0.000E+00  1.05486E+03  2.499E+00  1.200E+01  6.000E-02  1.833E+00
   1    3    5     3     1    2.0000E+00  2.8252E-01   1.7175E+00  0.000E+00  0.000E+00  0.000E+00  1.07555E+03  1.909E+00  9.636E+00  7.227E-02  1.955E+00
   1    3    6     3     2    1.7175E+00  2.4905E-01   1.4684E+00  0.000E+00  0.000E+00  0.000E+00  1.07264E+03  1.727E+00  8.909E+00  6.682E-02  1.864E+00
   1    3    7     3     3    1.4684E+00  1.9718E-01   1.2712E+00  0.000E+00  0.000E+00  0.000E+00  1.06987E+03  1.555E+00  8.218E+00  5.547E-02  1.777E+00
   1    4    8     3     4    1.2712E+00  2.2567E-01   1.0456E+00  0.000E+00  0.000E+00  0.000E+00  1.06682E+03  1.364E+00  7.455E+00  6.709E-02  1.682E+00
   1    5    8     3     5    1.0456E+00  1.5790E-01   8.8768E-01  0.000E+00  0.000E+00  0.000E+00  1.06362E+03  1.164E+00  6.655E+00  4.991E-02  1.582E+00
   1    6    8     3     6    8.8768E-01  5.5980E-02   8.3170E-01  0.000E+00  0.000E+00  0.000E+00  1.06158E+03  1.036E+00  6.145E+00  1.844E-02  1.518E+00
   1    5   10     4     1    1.0000E+01  9.0919E-02   9.9091E+00  0.000E+00  0.000E+00  0.000E+00  1.07836E+03  6.368E-01  1.000E+01  2.500E-02  1.212E+00
   1    5    9     4     2    9.9091E+00  1.8158E-01   9.7275E+00  0.000E+00  0.000E+00  0.000E+00  1.07154E+03  6.315E-01  1.000E+01  5.000E-02  1.211E+00
   1    6    8     4     3    9.7275E+00  1.2689E-01   9.6006E+00  0.000E+00  0.000E+00  0.000E+00  1.06381E+03  6.256E-01  1.000E+01  3.500E-02  1.209E+00
   1    6    8     5     1    1.0432E+01  2.2686E-01   1.0205E+01  0.000E+00  0.000E+00  0.000E+00  1.05868E+03  6.790E-01  1.542E+01  6.166E-02  1.226E+00
   1    7    7     5     2    1.0205E+01  2.7894E-01   9.9265E+00  0.000E+00  0.000E+00  0.000E+00  1.05417E+03  6.732E-01  1.519E+01  7.594E-02  1.224E+00
   1    8    7     5     3    9.9265E+00  1.9221E-01   9.7343E+00  0.000E+00  0.000E+00  0.000E+00  1.04992E+03  6.676E-01  1.497E+01  5.241E-02  1.223E+00
   1    8    6     5     4    9.7343E+00  1.3577E-01   9.5985E+00  0.000E+00  0.000E+00  0.000E+00  1.04691E+03  6.637E-01  1.482E+01  3.706E-02  1.221E+00
   1    9    6     6     1    9.3440E+01  3.4142E-01   9.3099E+01  0.000E+00  0.000E+00  0.000E+00  1.04542E+03  2.690E+00  1.200E+01  6.000E-02  1.897E+00
   1   10    7     6     2    9.3099E+01  3.4107E-01   9.2757E+01  0.000E+00  0.000E+00  0.000E+00  1.04087E+03  2.684E+00  1.200E+01  6.000E-02  1.895E+00
   1   11    7     6     3    9.2757E+01  3.4071E-01   9.2417E+01  0.000E+00  0.000E+00  0.000E+00  1.03631E+03  2.679E+00  1.200E+01  6.000E-02  1.893E+00
   1   12    7     6     4    9.2417E+01  3.4036E-01   9.2076E+01  0.000E+00  0.000E+00  0.000E+00  1.03176E+03  2.673E+00  1.200E+01  6.000E-02  1.891E+00
   1   13    7     6     5    9.2076E+01  3.4829E-02   9.2042E+01  0.000E+00  0.000E+00  0.000E+00  1.02858E+03  2.669E+00  1.200E+01  2.400E-02  4.837E-01
   1   14    9     7     1    1.5000E+02  1.3335E+00   1.4867E+02  0.000E+00  0.000E+00  0.000E+00  1.03987E+03  2.288E+00  5.529E+01  5.593E-01  7.948E-01
   1   13    8     7     2    1.4867E+02  1.8195E+00   1.4685E+02  0.000E+00  0.000E+00  0.000E+00  1.03478E+03  2.279E+00  5.526E+01  6.148E-01  9.865E-01
   1   13    7     7     3    1.4685E+02  1.4312E+00   1.4542E+02  0.000E+00  0.000E+00  0.000E+00  1.02969E+03  2.271E+00  5.522E+01  5.585E-01  8.542E-01
   1   13    6     8     1    2.3746E+02  1.1918E+00   2.3627E+02  0.000E+00  0.000E+00  0.000E+00  1.02522E+03  3.343E+00  4.848E+01  4.940E-01  8.042E-01
   1   13    5     8     2    2.3627E+02  3.4513E-01   2.3592E+02  0.000E+00  0.000E+00  0.000E+00  1.01896E+03  3.339E+00  4.842E+01  4.934E-01  2.332E-01
   1   13    4     8     3    2.3592E+02 -1.1465E+00   2.3707E+02  0.000E+00  0.000E+00  0.000E+00  1.01272E+03  3.341E+00  4.845E+01  4.937E+00 -7.741E-02
   1   13    3     8     4    2.3707E+02 -2.4413E+00   2.3951E+02  0.000E+00  0.000E+00  0.000E+00  1.00648E+03  3.351E+00  4.859E+01  4.951E+00 -1.644E-01
   1   13    2     8     5    2.3951E+02 -1.2142E+00   2.4072E+02  0.000E+00  0.000E+00  0.000E+00  1.00024E+03  3.360E+00  4.873E+01  4.965E+00 -8.151E-02
   1   13    1     8     6    2.4072E+02 -1.1914E+00   2.4191E+02  0.000E+00  0.000E+00  0.000E+00  9.95242E+02  3.367E+00  4.882E+01  2.985E+00 -1.331E-01
   1    8    6     9     1    0.0000E+00  0.0000E+00   0.0000E+00  0.000E+00  0.000E+00  0.000E+00  1.07875E+03  0.000E+00  4.000E+00  0.000E+00  1.000E+00
   1    8    5     9     2    0.0000E+00  0.0000E+00   0.0000E+00  0.000E+00  0.000E+00  0.000E+00  1.07825E+03  0.000E+00  4.000E+00  0.000E+00  1.000E+00





UNSATURATED ZONE PACKAGE VOLUMETRIC BUDGET FOR  TIME STEP    30 STRESS PERIOD   15
  ------------------------------------------------------------------------------



     CUMULATIVE VOLUMES      L**3       RATES FOR THIS TIME STEP      L**3/T
     ------------------                 ------------------------

           IN:                                      IN:
           ---                                      ---
        INFILTRATION =   183174192.2375          INFILTRATION =           0.8475

          OUT:                                     OUT:
          ----                                     ----
              UZF ET =    94366536.9598                UZF ET =           0.0430
        UZF RECHARGE =     9287675.2379          UZF RECHARGE =           0.1419

            IN - OUT =    79519980.0398              IN - OUT =           0.6626

          STORAGE:                                 STORAGE:
          --------                                 --------
      STORAGE CHANGE =    79593698.8979        STORAGE CHANGE =           0.6626

 PERCENT DISCREPANCY IS DIFFERENCE BETWEEN IN-OUT MINUS CHANGE IN STORAGE
 DIVIDED BY THE AVERAGE OF IN AND OUT TIMES 100

 PERCENT DISCREPANCY =          -0.01     PERCENT DISCREPANCY =          -0.00






1
  VOLUMETRIC BUDGET FOR ENTIRE MODEL AT END OF TIME STEP   30, STRESS PERIOD  15
  ------------------------------------------------------------------------------

     CUMULATIVE VOLUMES      L**3       RATES FOR THIS TIME STEP      L**3/T
     ------------------                 ------------------------

           IN:                                      IN:
           ---                                      ---
               AWU WELLS =    83320120.0000                 AWU WELLS =           0.0000
      DIVERSION SEGMENTS =    68598824.0000        DIVERSION SEGMENTS =           0.0000
           GW IRRIGATION =           0.0000             GW IRRIGATION =           0.0000
           SW IRRIGATION =           0.0000             SW IRRIGATION =           0.0000
        SYSTEM LOSSES GW =           0.0000          SYSTEM LOSSES GW =           0.0000
        SYSTEM LOSSES SW =           0.0000          SYSTEM LOSSES SW =           0.0000

                TOTAL IN =   151918944.0000                  TOTAL IN =           0.0000

          OUT:                                     OUT:
          ----                                     ----
               AWU WELLS =           0.0000                 AWU WELLS =           0.0000
      DIVERSION SEGMENTS =           0.0000        DIVERSION SEGMENTS =           0.0000
           GW IRRIGATION =    83320120.0000             GW IRRIGATION =           0.0000
           SW IRRIGATION =    68600184.0000             SW IRRIGATION =           0.0000
        SYSTEM LOSSES GW =           0.0000          SYSTEM LOSSES GW =           0.0000
        SYSTEM LOSSES SW =           0.0000          SYSTEM LOSSES SW =           0.0000

               TOTAL OUT =   151920304.0000                 TOTAL OUT =           0.0000

                IN - OUT =       -1360.0000                  IN - OUT =           0.0000

     PERCENT DISCREPANCY =          -0.00         PERCENT DISCREPANCY =           0.00



1
  VOLUMETRIC BUDGET FOR ENTIRE MODEL AT END OF TIME STEP   30, STRESS PERIOD  15
  ------------------------------------------------------------------------------

     CUMULATIVE VOLUMES      L**3       RATES FOR THIS TIME STEP      L**3/T
     ------------------                 ------------------------

           IN:                                      IN:
           ---                                      ---
             STORAGE     =   166149120.0000               STORAGE     =           0.6011
       CONSTANT HEAD     =           0.0000         CONSTANT HEAD     =           0.0000
     HEAD DEP BOUNDS     =    10535426.0000       HEAD DEP BOUNDS     =           0.2856
      STREAM LEAKAGE     =   460609632.0000        STREAM LEAKAGE     =          13.9928
        UZF RECHARGE     =     9287671.0000          UZF RECHARGE     =           0.1419
               GW ET     =           0.0000                 GW ET     =           0.0000
     SURFACE LEAKAGE     =           0.0000       SURFACE LEAKAGE     =           0.0000
           AWU WELLS     =           0.0000             AWU WELLS     =           0.0000

                TOTAL IN =   646581888.0000                  TOTAL IN =          15.0214

          OUT:                                     OUT:
          ----                                     ----
             STORAGE     =   141574336.0000               STORAGE     =           8.7281
       CONSTANT HEAD     =           0.0000         CONSTANT HEAD     =           0.0000
     HEAD DEP BOUNDS     =    10691353.0000       HEAD DEP BOUNDS     =           0.2904
      STREAM LEAKAGE     =   356127360.0000        STREAM LEAKAGE     =           5.9934
        UZF RECHARGE     =           0.0000          UZF RECHARGE     =           0.0000
               GW ET     =    54877928.0000                 GW ET     =       9.5696E-03
     SURFACE LEAKAGE     =           0.0000       SURFACE LEAKAGE     =           0.0000
           AWU WELLS     =    83320120.0000             AWU WELLS     =           0.0000

               TOTAL OUT =   646591104.0000                 TOTAL OUT =          15.0214

                IN - OUT =       -9216.0000                  IN - OUT =       3.4332E-05

     PERCENT DISCREPANCY =          -0.00         PERCENT DISCREPANCY =           0.00






         TIME SUMMARY AT END OF TIME STEP   30 IN STRESS PERIOD   15
                    SECONDS     MINUTES      HOURS       DAYS        YEARS
                    -----------------------------------------------------------
   TIME STEP LENGTH  87600.      1460.0      24.333      1.0139     2.77588E-03
 STRESS PERIOD TIME 2.62800E+06  43800.      730.00      30.417     8.32763E-02
         TOTAL TIME 3.68784E+07 6.14640E+05  10244.      426.83      1.1686    
1
1
                            STRESS PERIOD NO.   16, LENGTH =   2628000.    
                            -----------------------------------------------

                              NUMBER OF TIME STEPS =    30

                               MULTIPLIER FOR DELT =     1.000

                            INITIAL TIME STEP SIZE =   87600.00    

 REUSING NON-PARAMETER GHB CELLS FROM LAST STRESS PERIOD

      2 GHB CELLS

 REUSING STREAM SEGMENT DATA FROM LAST STRESS PERIOD



            AREAL INFILTRATION RATE
 READING ON UNIT   19 WITH FORMAT: (10F4.0)            

            1           2           3           4           5           6           7           8           9          10
 ........................................................................................................................
   1   1.0000E-10  2.0000E-10   0.000       0.000       0.000       0.000       0.000       0.000       0.000       0.000    
   2   2.0000E-10  1.0000E-10  2.0000E-10   0.000       0.000      8.0000E-10  8.0000E-10  5.0000E-10   0.000       0.000    
   3    0.000      5.0000E-10  1.0000E-10  1.0000E-10  8.0000E-10  8.0000E-10  5.0000E-10  5.0000E-10   0.000       0.000    
   4   8.0000E-10  5.0000E-10  1.0000E-10  1.0000E-10  1.0000E-10  1.0000E-10  1.0000E-10  1.0000E-10  2.0000E-10   0.000    
   5   8.0000E-10  5.0000E-10  1.0000E-10  1.0000E-10  1.0000E-10  1.0000E-10  1.0000E-10  1.0000E-10  1.0000E-10  1.0000E-10
   6   8.0000E-10  5.0000E-10  5.0000E-10  2.0000E-10  2.0000E-10  1.0000E-10  1.0000E-10  1.0000E-10  1.0000E-10  5.0000E-10
   7   8.0000E-10  5.0000E-10  5.0000E-10  2.0000E-10  2.0000E-10  1.0000E-10  1.0000E-10  2.0000E-10  2.0000E-10   0.000    
   8    0.000      5.0000E-10  5.0000E-10  2.0000E-10  2.0000E-10  1.0000E-10  1.0000E-10  2.0000E-10  5.0000E-10   0.000    
   9    0.000      5.0000E-10  5.0000E-10  2.0000E-10  2.0000E-10  1.0000E-10  1.0000E-10  2.0000E-10  5.0000E-10   0.000    
  10    0.000      5.0000E-10  5.0000E-10  2.0000E-10  2.0000E-10  1.0000E-10  1.0000E-10  2.0000E-10  5.0000E-10  8.0000E-10
  11    0.000      1.0000E-10  1.0000E-10  1.0000E-10  1.0000E-10  1.0000E-10  1.0000E-10  2.0000E-10  5.0000E-10   0.000    
  12   1.0000E-10  1.0000E-10  1.0000E-10  1.0000E-10  1.0000E-10  1.0000E-10  1.0000E-10  1.0000E-10  2.0000E-10   0.000    
  13   1.0000E-10  1.0000E-10  2.0000E-10  2.0000E-10  2.0000E-10  2.0000E-10  2.0000E-10  1.0000E-10  1.0000E-10   0.000    
  14    0.000      2.0000E-10  5.0000E-10  5.0000E-10  5.0000E-10  5.0000E-10  5.0000E-10  2.0000E-10  1.0000E-10   0.000    
  15    0.000       0.000      8.0000E-10  8.0000E-10  8.0000E-10  8.0000E-10   0.000       0.000       0.000       0.000    

                  ET RATE =  1.000000E-09

 USING ET EXTINCTION DEPTH FROM PREVIOUS STRESS PERIOD. CURRENT PERIOD IS:      16

 USING EXTINCTION WATER CONTENT FROM PREVIOUS STRESS PERIOD. CURRENT PERIOD IS:      16

 PROCESSING AWU STRESS PERIOD DATA

 READING AWU STRESS PERIOD DATA

 READING IRRIGATION STREAM

 READING IRRIGATION WELL

 READING SUPPLEMENTAL WEL

 END PROCESSING AWU STRESS PERIOD DATA OPTIONS
 
 SOLVING FOR HEAD 
                                                   Max.-Head-Change                         Max.-Flux-Residual
  Residual-Control   Outer-Iter.   Inner-Iter.     Column Row Layer    Maximum-Head-Change  Column Row Layer    Maximum-Flux-Residual          L2-NORM 
          0                 1           2             4   13     1       0.2716407858E-01       4   13    1         0.1572769241E+01      0.2890202364E+01
          0                 2           2             4   13     1      -0.2612139383E-02       4   13    1        -0.1555101782E+00      0.2757232672E+00
          0                 3           2             4   13     1       0.1750635276E-03       4   13    1         0.1071551296E-01      0.1845901336E-01
          0                 4           1             4   13     1      -0.6772499673E-05       4   13    1        -0.4262916482E-03      0.7033167249E-03

    ------------------------------------------------
       NWT REQUIRED            4 OUTER ITERATIONS 
       AND A TOTAL OF          7 INNER ITERATIONS.
    ------------------------------------------------

 NO OUTPUT CONTROL FOR STRESS PERIOD   16   TIME STEP    1
 
 SOLVING FOR HEAD 
                                                   Max.-Head-Change                         Max.-Flux-Residual
  Residual-Control   Outer-Iter.   Inner-Iter.     Column Row Layer    Maximum-Head-Change  Column Row Layer    Maximum-Flux-Residual          L2-NORM 
          0                 1           2             2   13     1       0.2478906951E-01       4   13    1         0.1413188011E+01      0.2664765094E+01
          0                 2           2             4   13     1      -0.2348424257E-02       4   13    1        -0.1397277416E+00      0.2536961353E+00
          0                 3           2             4   13     1       0.1574132057E-03       4   13    1         0.9629164849E-02      0.1699616656E-01
          0                 4           1             4   13     1      -0.6100231622E-05       4   13    1        -0.3837596914E-03      0.6488575053E-03

    ------------------------------------------------
       NWT REQUIRED            4 OUTER ITERATIONS 
       AND A TOTAL OF          7 INNER ITERATIONS.
    ------------------------------------------------

 NO OUTPUT CONTROL FOR STRESS PERIOD   16   TIME STEP    2
 
 SOLVING FOR HEAD 
                                                   Max.-Head-Change                         Max.-Flux-Residual
  Residual-Control   Outer-Iter.   Inner-Iter.     Column Row Layer    Maximum-Head-Change  Column Row Layer    Maximum-Flux-Residual          L2-NORM 
          0                 1           2             2   13     1       0.2276351207E-01       2   13    1         0.1293361946E+01      0.2461791783E+01
          0                 2           2             4   13     1      -0.2112631959E-02       4   13    1        -0.1256209593E+00      0.2338240739E+00
          0                 3           2             4   13     1       0.1416115231E-03       4   13    1         0.8656905979E-02      0.1567737630E-01
          0                 4           1             4   13     1      -0.5493429845E-05       4   13    1        -0.3453861591E-03      0.6005949678E-03

    ------------------------------------------------
       NWT REQUIRED            4 OUTER ITERATIONS 
       AND A TOTAL OF          7 INNER ITERATIONS.
    ------------------------------------------------

 NO OUTPUT CONTROL FOR STRESS PERIOD   16   TIME STEP    3
 
 SOLVING FOR HEAD 
                                                   Max.-Head-Change                         Max.-Flux-Residual
  Residual-Control   Outer-Iter.   Inner-Iter.     Column Row Layer    Maximum-Head-Change  Column Row Layer    Maximum-Flux-Residual          L2-NORM 
          0                 1           2             2   13     1       0.2090432918E-01       2   13    1         0.1187608459E+01      0.2279126898E+01
          0                 2           2             2   13     1      -0.1934613746E-02       4   13    1        -0.1130093890E+00      0.2144125457E+00
          0                 3           2             4   13     1       0.1271881771E-03       4   13    1         0.7793044439E-02      0.1438947499E-01
          0                 4           1             4   13     1      -0.4932517355E-05       4   13    1        -0.3108776264E-03      0.5520925910E-03

    ------------------------------------------------
       NWT REQUIRED            4 OUTER ITERATIONS 
       AND A TOTAL OF          7 INNER ITERATIONS.
    ------------------------------------------------

 NO OUTPUT CONTROL FOR STRESS PERIOD   16   TIME STEP    4
 
 SOLVING FOR HEAD 
                                                   Max.-Head-Change                         Max.-Flux-Residual
  Residual-Control   Outer-Iter.   Inner-Iter.     Column Row Layer    Maximum-Head-Change  Column Row Layer    Maximum-Flux-Residual          L2-NORM 
          0                 1           2             2   13     1       0.1919817298E-01       2   13    1         0.1090561117E+01      0.2115073728E+01
          0                 2           2             2   13     1      -0.1777932398E-02       2   13    1        -0.1038302319E+00      0.1981124704E+00
          0                 3           2             4   13     1       0.1145774344E-03       4   13    1         0.7017771135E-02      0.1330926448E-01
          0                 4           1             4   13     1      -0.4440262820E-05       4   13    1        -0.2797681518E-03      0.5129602971E-03

    ------------------------------------------------
       NWT REQUIRED            4 OUTER ITERATIONS 
       AND A TOTAL OF          7 INNER ITERATIONS.
    ------------------------------------------------

 NO OUTPUT CONTROL FOR STRESS PERIOD   16   TIME STEP    5
 
 SOLVING FOR HEAD 
                                                   Max.-Head-Change                         Max.-Flux-Residual
  Residual-Control   Outer-Iter.   Inner-Iter.     Column Row Layer    Maximum-Head-Change  Column Row Layer    Maximum-Flux-Residual          L2-NORM 
          0                 1           2             2   13     1       0.1763213924E-01       2   13    1         0.1001485870E+01      0.1967336151E+01
          0                 2           2             2   13     1      -0.1633723530E-02       2   13    1        -0.9539962984E-01      0.1833862398E+00
          0                 3           1             2   13     1       0.1039290553E-03       4   13    1         0.6324552000E-02      0.1233350264E-01
          0                 4           1             4   13     1      -0.4000791066E-05       4   13    1        -0.2520118278E-03      0.4765914902E-03

    ------------------------------------------------
       NWT REQUIRED            4 OUTER ITERATIONS 
       AND A TOTAL OF          6 INNER ITERATIONS.
    ------------------------------------------------

 NO OUTPUT CONTROL FOR STRESS PERIOD   16   TIME STEP    6
 
 SOLVING FOR HEAD 
                                                   Max.-Head-Change                         Max.-Flux-Residual
  Residual-Control   Outer-Iter.   Inner-Iter.     Column Row Layer    Maximum-Head-Change  Column Row Layer    Maximum-Flux-Residual          L2-NORM 
          0                 1           2             2   13     1       0.1619520913E-01       2   13    1         0.9197565875E+00      0.1834539752E+01
          0                 2           2             2   13     1      -0.1497218409E-02       2   13    1        -0.8766111438E-01      0.1469682698E+00
          0                 3           1             2   13     1       0.9622608453E-04       2   13    1         0.5837431446E-02      0.9036033914E-02

    ------------------------------------------------
       NWT REQUIRED            3 OUTER ITERATIONS 
       AND A TOTAL OF          5 INNER ITERATIONS.
    ------------------------------------------------

 NO OUTPUT CONTROL FOR STRESS PERIOD   16   TIME STEP    7
 
 SOLVING FOR HEAD 
                                                   Max.-Head-Change                         Max.-Flux-Residual
  Residual-Control   Outer-Iter.   Inner-Iter.     Column Row Layer    Maximum-Head-Change  Column Row Layer    Maximum-Flux-Residual          L2-NORM 
          0                 1           2             2   13     1       0.1488083362E-01       2   13    1         0.8449837606E+00      0.1717693101E+01
          0                 2           2             2   13     1      -0.1367574464E-02       2   13    1        -0.8056472994E-01      0.1178257577E+00
          0                 3           1             2   13     1       0.9299030555E-04       2   13    1         0.5619212811E-02      0.8088531498E-02

    ------------------------------------------------
       NWT REQUIRED            3 OUTER ITERATIONS 
       AND A TOTAL OF          5 INNER ITERATIONS.
    ------------------------------------------------

 NO OUTPUT CONTROL FOR STRESS PERIOD   16   TIME STEP    8
 
 SOLVING FOR HEAD 
                                                   Max.-Head-Change                         Max.-Flux-Residual
  Residual-Control   Outer-Iter.   Inner-Iter.     Column Row Layer    Maximum-Head-Change  Column Row Layer    Maximum-Flux-Residual          L2-NORM 
          0                 1           2             2   13     1       0.1368635526E-01       2   13    1         0.7771337609E+00      0.1603655445E+01
          0                 2           2             2   13     1      -0.1254426567E-02       2   13    1        -0.7416853308E-01      0.9624915402E-01
          0                 3           1             2   13     1       0.8514205288E-04       2   13    1         0.5172098893E-02      0.6582825636E-02

    ------------------------------------------------
       NWT REQUIRED            3 OUTER ITERATIONS 
       AND A TOTAL OF          5 INNER ITERATIONS.
    ------------------------------------------------

 NO OUTPUT CONTROL FOR STRESS PERIOD   16   TIME STEP    9
 
 SOLVING FOR HEAD 
                                                   Max.-Head-Change                         Max.-Flux-Residual
  Residual-Control   Outer-Iter.   Inner-Iter.     Column Row Layer    Maximum-Head-Change  Column Row Layer    Maximum-Flux-Residual          L2-NORM 
          0                 1           2             2   13     1       0.1259117826E-01       2   13    1         0.7149234206E+00      0.1502134401E+01
          0                 2           2             2   13     1      -0.6918112747E-03       2   13    1        -0.4102594655E-01      0.7218056987E-01
          0                 3           1             3    3     1       0.3407401589E-04       3    3    1         0.1892508365E-02      0.4166580214E-02

    ------------------------------------------------
       NWT REQUIRED            3 OUTER ITERATIONS 
       AND A TOTAL OF          5 INNER ITERATIONS.
    ------------------------------------------------

 NO OUTPUT CONTROL FOR STRESS PERIOD   16   TIME STEP   10
 
 SOLVING FOR HEAD 
                                                   Max.-Head-Change                         Max.-Flux-Residual
  Residual-Control   Outer-Iter.   Inner-Iter.     Column Row Layer    Maximum-Head-Change  Column Row Layer    Maximum-Flux-Residual          L2-NORM 
          0                 1           2             2   13     1       0.1158014008E-01       2   13    1         0.6575002002E+00      0.1411005654E+01
          0                 2           2             3    3     1      -0.4940148086E-03       3    3    1        -0.2674293065E-01      0.5878103644E-01
          0                 3           1             3    3     1       0.3371973612E-04       3    3    1         0.1872665670E-02      0.4015934550E-02

    ------------------------------------------------
       NWT REQUIRED            3 OUTER ITERATIONS 
       AND A TOTAL OF          5 INNER ITERATIONS.
    ------------------------------------------------

 NO OUTPUT CONTROL FOR STRESS PERIOD   16   TIME STEP   11
 
 SOLVING FOR HEAD 
                                                   Max.-Head-Change                         Max.-Flux-Residual
  Residual-Control   Outer-Iter.   Inner-Iter.     Column Row Layer    Maximum-Head-Change  Column Row Layer    Maximum-Flux-Residual          L2-NORM 
          0                 1           2             2   13     1       0.1054403021E-01       2   13    1         0.5985702521E+00      0.1327661482E+01
          0                 2           2             3    3     1      -0.4888269958E-03       3    3    1        -0.2646518317E-01      0.5790419015E-01
          0                 3           1             3    3     1       0.3337281713E-04       3    3    1         0.1853275784E-02      0.3984130201E-02

    ------------------------------------------------
       NWT REQUIRED            3 OUTER ITERATIONS 
       AND A TOTAL OF          5 INNER ITERATIONS.
    ------------------------------------------------

 NO OUTPUT CONTROL FOR STRESS PERIOD   16   TIME STEP   12
 
 SOLVING FOR HEAD 
                                                   Max.-Head-Change                         Max.-Flux-Residual
  Residual-Control   Outer-Iter.   Inner-Iter.     Column Row Layer    Maximum-Head-Change  Column Row Layer    Maximum-Flux-Residual          L2-NORM 
          0                 1           2             2   13     1       0.9602225768E-02       2   13    1         0.5450074334E+00      0.1254153463E+01
          0                 2           2             3    3     1      -0.4837503660E-03       3    3    1        -0.2619255748E-01      0.5733594611E-01
          0                 3           1             3    3     1       0.3303328163E-04       3    3    1         0.1834239664E-02      0.3968687178E-02

    ------------------------------------------------
       NWT REQUIRED            3 OUTER ITERATIONS 
       AND A TOTAL OF          5 INNER ITERATIONS.
    ------------------------------------------------

 NO OUTPUT CONTROL FOR STRESS PERIOD   16   TIME STEP   13
 
 SOLVING FOR HEAD 
                                                   Max.-Head-Change                         Max.-Flux-Residual
  Residual-Control   Outer-Iter.   Inner-Iter.     Column Row Layer    Maximum-Head-Change  Column Row Layer    Maximum-Flux-Residual          L2-NORM 
          0                 1           2             2   13     1       0.8746064987E-02       2   13    1         0.4963187931E+00      0.1189220959E+01
          0                 2           2             3    3     1      -0.4787959112E-03       3    3    1        -0.2592626195E-01      0.5682533688E-01
          0                 3           1             3    3     1       0.3270152085E-04       3    3    1         0.1815644395E-02      0.3953980516E-02

    ------------------------------------------------
       NWT REQUIRED            3 OUTER ITERATIONS 
       AND A TOTAL OF          5 INNER ITERATIONS.
    ------------------------------------------------

 NO OUTPUT CONTROL FOR STRESS PERIOD   16   TIME STEP   14
 
 SOLVING FOR HEAD 
                                                   Max.-Head-Change                         Max.-Flux-Residual
  Residual-Control   Outer-Iter.   Inner-Iter.     Column Row Layer    Maximum-Head-Change  Column Row Layer    Maximum-Flux-Residual          L2-NORM 
          0                 1           2             1   13     1       0.8051864243E-02       2   13    1         0.4520615972E+00      0.1131927975E+01
          0                 2           2             4    3     1      -0.4200514940E-03       4    3    1        -0.2299646814E-01      0.5074139217E-01
          0                 3           1             4    3     1       0.2843736502E-04       4    3    1         0.1609891179E-02      0.3518290672E-02

    ------------------------------------------------
       NWT REQUIRED            3 OUTER ITERATIONS 
       AND A TOTAL OF          5 INNER ITERATIONS.
    ------------------------------------------------

 NO OUTPUT CONTROL FOR STRESS PERIOD   16   TIME STEP   15
 
 SOLVING FOR HEAD 
                                                   Max.-Head-Change                         Max.-Flux-Residual
  Residual-Control   Outer-Iter.   Inner-Iter.     Column Row Layer    Maximum-Head-Change  Column Row Layer    Maximum-Flux-Residual          L2-NORM 
          0                 1           2             1   13     1       0.7613975288E-02       1   13    1         0.4170562411E+00      0.1081790768E+01
          0                 2           2             4    3     1      -0.4138250593E-03       4    3    1        -0.2277372737E-01      0.4974659417E-01
          0                 3           1             4    3     1       0.2823725682E-04       4    3    1         0.1595033194E-02      0.3481487583E-02

    ------------------------------------------------
       NWT REQUIRED            3 OUTER ITERATIONS 
       AND A TOTAL OF          5 INNER ITERATIONS.
    ------------------------------------------------

 NO OUTPUT CONTROL FOR STRESS PERIOD   16   TIME STEP   16
 
 SOLVING FOR HEAD 
                                                   Max.-Head-Change                         Max.-Flux-Residual
  Residual-Control   Outer-Iter.   Inner-Iter.     Column Row Layer    Maximum-Head-Change  Column Row Layer    Maximum-Flux-Residual          L2-NORM 
          0                 1           2             1   13     1       0.7197213243E-02       1   13    1         0.3943155906E+00      0.1037249330E+01
          0                 2           2             4    3     1      -0.4102014277E-03       4    3    1        -0.2257357228E-01      0.4923049051E-01
          0                 3           1             4    3     1       0.2799040778E-04       4    3    1         0.1581019161E-02      0.3469879774E-02

    ------------------------------------------------
       NWT REQUIRED            3 OUTER ITERATIONS 
       AND A TOTAL OF          5 INNER ITERATIONS.
    ------------------------------------------------

 NO OUTPUT CONTROL FOR STRESS PERIOD   16   TIME STEP   17
 
 SOLVING FOR HEAD 
                                                   Max.-Head-Change                         Max.-Flux-Residual
  Residual-Control   Outer-Iter.   Inner-Iter.     Column Row Layer    Maximum-Head-Change  Column Row Layer    Maximum-Flux-Residual          L2-NORM 
          0                 1           2             1   13     1       0.6800909919E-02       1   13    1         0.3726812872E+00      0.9978441356E+00
          0                 2           2             4    3     1      -0.4066418105E-03       4    3    1        -0.2237696506E-01      0.4892617684E-01
          0                 3           1             4    3     1       0.2774791377E-04       4    3    1         0.1567253433E-02      0.3461590103E-02

    ------------------------------------------------
       NWT REQUIRED            3 OUTER ITERATIONS 
       AND A TOTAL OF          5 INNER ITERATIONS.
    ------------------------------------------------

 NO OUTPUT CONTROL FOR STRESS PERIOD   16   TIME STEP   18
 
 SOLVING FOR HEAD 
                                                   Max.-Head-Change                         Max.-Flux-Residual
  Residual-Control   Outer-Iter.   Inner-Iter.     Column Row Layer    Maximum-Head-Change  Column Row Layer    Maximum-Flux-Residual          L2-NORM 
          0                 1           2             2    2     1       0.6486950116E-02       1   13    1         0.3521150564E+00      0.9630307286E+00
          0                 2           2             4    3     1      -0.4031658914E-03       4    3    1        -0.2218497562E-01      0.4724630208E-01
          0                 3           1             4    3     1       0.2751111293E-04       4    3    1         0.1553810921E-02      0.3357391281E-02

    ------------------------------------------------
       NWT REQUIRED            3 OUTER ITERATIONS 
       AND A TOTAL OF          5 INNER ITERATIONS.
    ------------------------------------------------

 NO OUTPUT CONTROL FOR STRESS PERIOD   16   TIME STEP   19
 
 SOLVING FOR HEAD 
                                                   Max.-Head-Change                         Max.-Flux-Residual
  Residual-Control   Outer-Iter.   Inner-Iter.     Column Row Layer    Maximum-Head-Change  Column Row Layer    Maximum-Flux-Residual          L2-NORM 
          0                 1           2             2    2     1       0.6443178292E-02       2    2    1         0.3366077406E+00      0.9324780802E+00
          0                 2           2             4    3     1      -0.3997478796E-03       4    3    1        -0.2199620584E-01      0.4631650322E-01
          0                 3           1             4    3     1       0.2727825412E-04       4    3    1         0.1540593763E-02      0.3255282007E-02

    ------------------------------------------------
       NWT REQUIRED            3 OUTER ITERATIONS 
       AND A TOTAL OF          5 INNER ITERATIONS.
    ------------------------------------------------

 NO OUTPUT CONTROL FOR STRESS PERIOD   16   TIME STEP   20
 
 SOLVING FOR HEAD 
                                                   Max.-Head-Change                         Max.-Flux-Residual
  Residual-Control   Outer-Iter.   Inner-Iter.     Column Row Layer    Maximum-Head-Change  Column Row Layer    Maximum-Flux-Residual          L2-NORM 
          0                 1           2             2    2     1       0.6400015696E-02       2    2    1         0.3343358401E+00      0.9054920625E+00
          0                 2           2             4    3     1      -0.3964077974E-03       4    3    1        -0.2181173661E-01      0.4476357441E-01
          0                 3           1             4    3     1       0.2705069656E-04       4    3    1         0.1527677646E-02      0.3204121802E-02

    ------------------------------------------------
       NWT REQUIRED            3 OUTER ITERATIONS 
       AND A TOTAL OF          5 INNER ITERATIONS.
    ------------------------------------------------

 NO OUTPUT CONTROL FOR STRESS PERIOD   16   TIME STEP   21
 
 SOLVING FOR HEAD 
                                                   Max.-Head-Change                         Max.-Flux-Residual
  Residual-Control   Outer-Iter.   Inner-Iter.     Column Row Layer    Maximum-Head-Change  Column Row Layer    Maximum-Flux-Residual          L2-NORM 
          0                 1           2             2    2     1       0.6357538408E-02       2    2    1         0.3321000904E+00      0.8813607037E+00
          0                 2           2             4    3     1      -0.3931430463E-03       4    3    1        -0.2163142313E-01      0.4452501711E-01
          0                 3           1             4    3     1       0.2682826297E-04       4    3    1         0.1515052405E-02      0.3196007474E-02

    ------------------------------------------------
       NWT REQUIRED            3 OUTER ITERATIONS 
       AND A TOTAL OF          5 INNER ITERATIONS.
    ------------------------------------------------

 NO OUTPUT CONTROL FOR STRESS PERIOD   16   TIME STEP   22
 
 SOLVING FOR HEAD 
                                                   Max.-Head-Change                         Max.-Flux-Residual
  Residual-Control   Outer-Iter.   Inner-Iter.     Column Row Layer    Maximum-Head-Change  Column Row Layer    Maximum-Flux-Residual          L2-NORM 
          0                 1           2             2    2     1       0.6315645881E-02       2    2    1         0.3298952259E+00      0.8598040689E+00
          0                 2           2             4    3     1      -0.3899504663E-03       4    3    1        -0.2145511228E-01      0.4430539426E-01
          0                 3           1             4    3     1       0.2661074295E-04       4    3    1         0.1502707403E-02      0.3188396218E-02

    ------------------------------------------------
       NWT REQUIRED            3 OUTER ITERATIONS 
       AND A TOTAL OF          5 INNER ITERATIONS.
    ------------------------------------------------

 NO OUTPUT CONTROL FOR STRESS PERIOD   16   TIME STEP   23
 
 SOLVING FOR HEAD 
                                                   Max.-Head-Change                         Max.-Flux-Residual
  Residual-Control   Outer-Iter.   Inner-Iter.     Column Row Layer    Maximum-Head-Change  Column Row Layer    Maximum-Flux-Residual          L2-NORM 
          0                 1           2             2    2     1       0.6274502438E-02       2    2    1         0.3277298354E+00      0.7466394809E+00
          0                 2           2             4    3     1      -0.3868281074E-03       4    3    1        -0.2128267441E-01      0.4313972327E-01
          0                 3           1             4    3     1       0.2639800043E-04       4    3    1         0.1490633455E-02      0.3129666461E-02

    ------------------------------------------------
       NWT REQUIRED            3 OUTER ITERATIONS 
       AND A TOTAL OF          5 INNER ITERATIONS.
    ------------------------------------------------

 NO OUTPUT CONTROL FOR STRESS PERIOD   16   TIME STEP   24
 
 SOLVING FOR HEAD 
                                                   Max.-Head-Change                         Max.-Flux-Residual
  Residual-Control   Outer-Iter.   Inner-Iter.     Column Row Layer    Maximum-Head-Change  Column Row Layer    Maximum-Flux-Residual          L2-NORM 
          0                 1           2             4   13     1      -0.1786502405E-01       4   13    1        -0.1031342666E+01      0.1821790735E+01
          0                 2           2             4   13     1       0.1688660304E-02       4   13    1         0.1001052453E+00      0.1645738902E+00
          0                 3           1             4   13     1      -0.1135641795E-03       4   13    1        -0.6924470832E-02      0.1116230734E-01
          0                 4           1             4   13     1       0.4436278023E-05       4   13    1         0.2779275901E-03      0.4479754205E-03

    ------------------------------------------------
       NWT REQUIRED            4 OUTER ITERATIONS 
       AND A TOTAL OF          6 INNER ITERATIONS.
    ------------------------------------------------

 NO OUTPUT CONTROL FOR STRESS PERIOD   16   TIME STEP   25
 
 SOLVING FOR HEAD 
                                                   Max.-Head-Change                         Max.-Flux-Residual
  Residual-Control   Outer-Iter.   Inner-Iter.     Column Row Layer    Maximum-Head-Change  Column Row Layer    Maximum-Flux-Residual          L2-NORM 
          0                 1           2             4   13     1      -0.1613281448E-01       4   13    1        -0.9309943583E+00      0.1691640574E+01
          0                 2           2             4   13     1       0.1557912637E-02       4   13    1         0.9231391245E-01      0.1565166690E+00
          0                 3           1             4   13     1      -0.1047482533E-03       4   13    1        -0.6384186060E-02      0.1061473444E-01
          0                 4           1             4   13     1       0.4084698824E-05       4   13    1         0.2557831494E-03      0.4266280480E-03

    ------------------------------------------------
       NWT REQUIRED            4 OUTER ITERATIONS 
       AND A TOTAL OF          6 INNER ITERATIONS.
    ------------------------------------------------

 NO OUTPUT CONTROL FOR STRESS PERIOD   16   TIME STEP   26
 
 SOLVING FOR HEAD 
                                                   Max.-Head-Change                         Max.-Flux-Residual
  Residual-Control   Outer-Iter.   Inner-Iter.     Column Row Layer    Maximum-Head-Change  Column Row Layer    Maximum-Flux-Residual          L2-NORM 
          0                 1           2             4   13     1      -0.1454301766E-01       4   13    1        -0.8389558209E+00      0.1570353688E+01
          0                 2           2             4   13     1       0.1404009927E-02       4   13    1         0.8318157509E-01      0.1435718585E+00
          0                 3           1             4   13     1      -0.9440638114E-04       4   13    1        -0.5752976823E-02      0.9691457552E-02

    ------------------------------------------------
       NWT REQUIRED            3 OUTER ITERATIONS 
       AND A TOTAL OF          5 INNER ITERATIONS.
    ------------------------------------------------

 NO OUTPUT CONTROL FOR STRESS PERIOD   16   TIME STEP   27
 
 SOLVING FOR HEAD 
                                                   Max.-Head-Change                         Max.-Flux-Residual
  Residual-Control   Outer-Iter.   Inner-Iter.     Column Row Layer    Maximum-Head-Change  Column Row Layer    Maximum-Flux-Residual          L2-NORM 
          0                 1           2             4   13     1      -0.1311455155E-01       4   13    1        -0.7562818903E+00      0.1461750303E+01
          0                 2           2             4   13     1       0.1265892447E-02       4   13    1         0.7497927760E-01      0.1315284022E+00
          0                 3           1             4   13     1      -0.8511063273E-04       4   13    1        -0.5185134359E-02      0.8923681156E-02

    ------------------------------------------------
       NWT REQUIRED            3 OUTER ITERATIONS 
       AND A TOTAL OF          5 INNER ITERATIONS.
    ------------------------------------------------

 NO OUTPUT CONTROL FOR STRESS PERIOD   16   TIME STEP   28
 
 SOLVING FOR HEAD 
                                                   Max.-Head-Change                         Max.-Flux-Residual
  Residual-Control   Outer-Iter.   Inner-Iter.     Column Row Layer    Maximum-Head-Change  Column Row Layer    Maximum-Flux-Residual          L2-NORM 
          0                 1           2             4   13     1      -0.1183089859E-01       4   13    1        -0.6820037001E+00      0.1364154739E+01
          0                 2           2             4   13     1       0.1141908513E-02       4   13    1         0.6760896678E-01      0.1213969860E+00
          0                 3           1             4   13     1      -0.7673413763E-04       4   13    1        -0.4672991417E-02      0.8244715603E-02

    ------------------------------------------------
       NWT REQUIRED            3 OUTER ITERATIONS 
       AND A TOTAL OF          5 INNER ITERATIONS.
    ------------------------------------------------

 NO OUTPUT CONTROL FOR STRESS PERIOD   16   TIME STEP   29
 
 SOLVING FOR HEAD 
                                                   Max.-Head-Change                         Max.-Flux-Residual
  Residual-Control   Outer-Iter.   Inner-Iter.     Column Row Layer    Maximum-Head-Change  Column Row Layer    Maximum-Flux-Residual          L2-NORM 
          0                 1           2             2   13     1      -0.1149526698E-01       4   13    1        -0.6502566366E+00      0.1325164870E+01
          0                 2           2             4   13     1       0.1089606913E-02       4   13    1         0.6446088714E-01      0.1178009692E+00
          0                 3           1             4   13     1      -0.7320514472E-04       4   13    1        -0.4454426001E-02      0.7998562302E-02

    ------------------------------------------------
       NWT REQUIRED            3 OUTER ITERATIONS 
       AND A TOTAL OF          5 INNER ITERATIONS.
    ------------------------------------------------

 NO OUTPUT CONTROL FOR STRESS PERIOD   16   TIME STEP   30



 STREAM LISTING     PERIOD     16   STEP       30

 LAYER ROW COL. STREAM  RCH.  FLOW INTO     FLOW TO   FLOW OUT OF   OVRLND.     DIRECT     STREAM       STREAM     STREAM     STREAM   STREAMBED  STREAMBED
                SEG.NO.  NO.  STRM. RCH.    AQUIFER    STRM. RCH.    RUNOFF     PRECIP       ET          HEAD       DEPTH      WIDTH   CONDCTNC.   GRADIENT

   1    1    1     1     1    9.6320E+01  4.6757E-01   9.5852E+01  0.000E+00  0.000E+00  0.000E+00  1.09483E+03  1.786E+00  2.171E+01  9.770E-02  1.595E+00
   1    2    2     1     2    9.5852E+01  7.2549E-01   9.5127E+01  0.000E+00  0.000E+00  0.000E+00  1.08984E+03  1.784E+00  2.167E+01  1.517E-01  1.595E+00
   1    3    3     1     3    9.5127E+01  6.2007E-01   9.4507E+01  0.000E+00  0.000E+00  0.000E+00  1.08420E+03  1.781E+00  2.162E+01  1.297E-01  1.594E+00
   1    3    4     1     4    9.4507E+01  5.7210E-01   9.3934E+01  0.000E+00  0.000E+00  0.000E+00  1.07919E+03  1.779E+00  2.157E+01  1.197E-01  1.593E+00
   1    4    5     2     1    9.1934E+01  4.3945E-01   9.1495E+01  0.000E+00  0.000E+00  0.000E+00  1.07457E+03  2.634E+00  1.200E+01  7.800E-02  1.878E+00
   1    5    6     2     2    9.1495E+01  3.3764E-01   9.1157E+01  0.000E+00  0.000E+00  0.000E+00  1.06914E+03  2.627E+00  1.200E+01  6.000E-02  1.876E+00
   1    6    6     2     3    9.1157E+01  3.3729E-01   9.0820E+01  0.000E+00  0.000E+00  0.000E+00  1.06441E+03  2.621E+00  1.200E+01  6.000E-02  1.874E+00
   1    7    6     2     4    9.0820E+01  3.3694E-01   9.0483E+01  0.000E+00  0.000E+00  0.000E+00  1.05969E+03  2.616E+00  1.200E+01  6.000E-02  1.872E+00
   1    8    6     2     5    9.0483E+01  3.3659E-01   9.0147E+01  0.000E+00  0.000E+00  0.000E+00  1.05497E+03  2.610E+00  1.200E+01  6.000E-02  1.870E+00
   1    3    5     3     1    2.0000E+00  2.8252E-01   1.7175E+00  0.000E+00  0.000E+00  0.000E+00  1.07555E+03  1.909E+00  9.636E+00  7.227E-02  1.955E+00
   1    3    6     3     2    1.7175E+00  2.4905E-01   1.4684E+00  0.000E+00  0.000E+00  0.000E+00  1.07264E+03  1.727E+00  8.909E+00  6.682E-02  1.864E+00
   1    3    7     3     3    1.4684E+00  1.9718E-01   1.2712E+00  0.000E+00  0.000E+00  0.000E+00  1.06987E+03  1.555E+00  8.218E+00  5.547E-02  1.777E+00
   1    4    8     3     4    1.2712E+00  2.2567E-01   1.0456E+00  0.000E+00  0.000E+00  0.000E+00  1.06682E+03  1.364E+00  7.455E+00  6.709E-02  1.682E+00
   1    5    8     3     5    1.0456E+00  1.5790E-01   8.8768E-01  0.000E+00  0.000E+00  0.000E+00  1.06362E+03  1.164E+00  6.655E+00  4.991E-02  1.582E+00
   1    6    8     3     6    8.8768E-01  5.5980E-02   8.3170E-01  0.000E+00  0.000E+00  0.000E+00  1.06158E+03  1.036E+00  6.145E+00  1.844E-02  1.518E+00
   1    5   10     4     1    1.0000E+01  9.0919E-02   9.9091E+00  0.000E+00  0.000E+00  0.000E+00  1.07836E+03  6.368E-01  1.000E+01  2.500E-02  1.212E+00
   1    5    9     4     2    9.9091E+00  1.8158E-01   9.7275E+00  0.000E+00  0.000E+00  0.000E+00  1.07154E+03  6.315E-01  1.000E+01  5.000E-02  1.211E+00
   1    6    8     4     3    9.7275E+00  1.2689E-01   9.6006E+00  0.000E+00  0.000E+00  0.000E+00  1.06381E+03  6.256E-01  1.000E+01  3.500E-02  1.209E+00
   1    6    8     5     1    1.0432E+01  2.2686E-01   1.0205E+01  0.000E+00  0.000E+00  0.000E+00  1.05868E+03  6.790E-01  1.542E+01  6.166E-02  1.226E+00
   1    7    7     5     2    1.0205E+01  2.7894E-01   9.9265E+00  0.000E+00  0.000E+00  0.000E+00  1.05417E+03  6.732E-01  1.519E+01  7.594E-02  1.224E+00
   1    8    7     5     3    9.9265E+00  1.9221E-01   9.7343E+00  0.000E+00  0.000E+00  0.000E+00  1.04992E+03  6.676E-01  1.497E+01  5.241E-02  1.223E+00
   1    8    6     5     4    9.7343E+00  1.3577E-01   9.5985E+00  0.000E+00  0.000E+00  0.000E+00  1.04691E+03  6.637E-01  1.482E+01  3.706E-02  1.221E+00
   1    9    6     6     1    4.4745E+01  2.8369E-01   4.4461E+01  0.000E+00  0.000E+00  0.000E+00  1.04446E+03  1.728E+00  1.200E+01  6.000E-02  1.576E+00
   1   10    7     6     2    4.4461E+01  2.8330E-01   4.4178E+01  0.000E+00  0.000E+00  0.000E+00  1.03990E+03  1.722E+00  1.200E+01  6.000E-02  1.574E+00
   1   11    7     6     3    4.4178E+01  2.8290E-01   4.3895E+01  0.000E+00  0.000E+00  0.000E+00  1.03535E+03  1.715E+00  1.200E+01  6.000E-02  1.572E+00
   1   12    7     6     4    4.3895E+01  2.8250E-01   4.3613E+01  0.000E+00  0.000E+00  0.000E+00  1.03080E+03  1.708E+00  1.200E+01  6.000E-02  1.569E+00
   1   13    7     6     5    4.3613E+01  1.1037E-02   4.3602E+01  0.000E+00  0.000E+00  0.000E+00  1.02761E+03  1.705E+00  1.200E+01  2.400E-02  1.533E-01
   1   14    9     7     1    1.5000E+02  1.3334E+00   1.4867E+02  0.000E+00  0.000E+00  0.000E+00  1.03987E+03  2.288E+00  5.529E+01  5.593E-01  7.947E-01
   1   13    8     7     2    1.4867E+02  1.8177E+00   1.4685E+02  0.000E+00  0.000E+00  0.000E+00  1.03478E+03  2.279E+00  5.526E+01  6.148E-01  9.856E-01
   1   13    7     7     3    1.4685E+02  1.4162E+00   1.4543E+02  0.000E+00  0.000E+00  0.000E+00  1.02969E+03  2.271E+00  5.522E+01  5.585E-01  8.453E-01
   1   13    6     8     1    1.8903E+02  9.2690E-01   1.8811E+02  0.000E+00  0.000E+00  0.000E+00  1.02494E+03  3.069E+00  4.450E+01  4.535E-01  6.813E-01
   1   13    5     8     2    1.8811E+02  1.4621E-01   1.8796E+02  0.000E+00  0.000E+00  0.000E+00  1.01869E+03  3.066E+00  4.446E+01  4.530E-01  1.076E-01
   1   13    4     8     3    1.8796E+02 -2.9834E+00   1.9094E+02  0.000E+00  0.000E+00  0.000E+00  1.01245E+03  3.075E+00  4.458E+01  4.543E+00 -2.189E-01
   1   13    3     8     4    1.9094E+02 -4.1680E+00   1.9511E+02  0.000E+00  0.000E+00  0.000E+00  1.00622E+03  3.096E+00  4.490E+01  4.575E+00 -3.037E-01
   1   13    2     8     5    1.9511E+02 -3.1246E+00   1.9824E+02  0.000E+00  0.000E+00  0.000E+00  9.99993E+02  3.118E+00  4.521E+01  4.607E+00 -2.261E-01
   1   13    1     8     6    1.9824E+02 -2.2708E+00   2.0051E+02  0.000E+00  0.000E+00  0.000E+00  9.95009E+02  3.134E+00  4.544E+01  2.779E+00 -2.724E-01
   1    8    6     9     1    5.5000E+01  0.0000E+00   5.5000E+01  0.000E+00  0.000E+00  0.000E+00  1.08505E+03  6.302E+00  4.000E+00  0.000E+00  3.101E+00
   1    8    5     9     2    5.5000E+01  0.0000E+00   5.5000E+01  0.000E+00  0.000E+00  0.000E+00  1.08455E+03  6.302E+00  4.000E+00  0.000E+00  3.101E+00





UNSATURATED ZONE PACKAGE VOLUMETRIC BUDGET FOR  TIME STEP    30 STRESS PERIOD   16
  ------------------------------------------------------------------------------



     CUMULATIVE VOLUMES      L**3       RATES FOR THIS TIME STEP      L**3/T
     ------------------                 ------------------------

           IN:                                      IN:
           ---                                      ---
        INFILTRATION =   185401422.2375          INFILTRATION =           0.8475

          OUT:                                     OUT:
          ----                                     ----
              UZF ET =    95561630.5246                UZF ET =           0.4764
        UZF RECHARGE =    10219178.6705          UZF RECHARGE =           0.2841

            IN - OUT =    79620613.0424              IN - OUT =       8.6967E-02

          STORAGE:                                 STORAGE:
          --------                                 --------
      STORAGE CHANGE =    79694430.3391        STORAGE CHANGE =       8.6967E-02

 PERCENT DISCREPANCY IS DIFFERENCE BETWEEN IN-OUT MINUS CHANGE IN STORAGE
 DIVIDED BY THE AVERAGE OF IN AND OUT TIMES 100

 PERCENT DISCREPANCY =          -0.01     PERCENT DISCREPANCY =          -0.00






1
  VOLUMETRIC BUDGET FOR ENTIRE MODEL AT END OF TIME STEP   30, STRESS PERIOD  16
  ------------------------------------------------------------------------------

     CUMULATIVE VOLUMES      L**3       RATES FOR THIS TIME STEP      L**3/T
     ------------------                 ------------------------

           IN:                                      IN:
           ---                                      ---
               AWU WELLS =    83320120.0000                 AWU WELLS =           0.0000
      DIVERSION SEGMENTS =    68598824.0000        DIVERSION SEGMENTS =           0.0000
           GW IRRIGATION =           0.0000             GW IRRIGATION =           0.0000
           SW IRRIGATION =           0.0000             SW IRRIGATION =           0.0000
        SYSTEM LOSSES GW =           0.0000          SYSTEM LOSSES GW =           0.0000
        SYSTEM LOSSES SW =           0.0000          SYSTEM LOSSES SW =           0.0000

                TOTAL IN =   151918944.0000                  TOTAL IN =           0.0000

          OUT:                                     OUT:
          ----                                     ----
               AWU WELLS =           0.0000                 AWU WELLS =           0.0000
      DIVERSION SEGMENTS =           0.0000        DIVERSION SEGMENTS =           0.0000
           GW IRRIGATION =    83320120.0000             GW IRRIGATION =           0.0000
           SW IRRIGATION =    68600184.0000             SW IRRIGATION =           0.0000
        SYSTEM LOSSES GW =           0.0000          SYSTEM LOSSES GW =           0.0000
        SYSTEM LOSSES SW =           0.0000          SYSTEM LOSSES SW =           0.0000

               TOTAL OUT =   151920304.0000                 TOTAL OUT =           0.0000

                IN - OUT =       -1360.0000                  IN - OUT =           0.0000

     PERCENT DISCREPANCY =          -0.00         PERCENT DISCREPANCY =           0.00



1
  VOLUMETRIC BUDGET FOR ENTIRE MODEL AT END OF TIME STEP   30, STRESS PERIOD  16
  ------------------------------------------------------------------------------

     CUMULATIVE VOLUMES      L**3       RATES FOR THIS TIME STEP      L**3/T
     ------------------                 ------------------------

           IN:                                      IN:
           ---                                      ---
             STORAGE     =   168847408.0000               STORAGE     =           2.6564
       CONSTANT HEAD     =           0.0000         CONSTANT HEAD     =           0.0000
     HEAD DEP BOUNDS     =    11285979.0000       HEAD DEP BOUNDS     =           0.2856
      STREAM LEAKAGE     =   497392992.0000        STREAM LEAKAGE     =          13.3584
        UZF RECHARGE     =    10219174.0000          UZF RECHARGE     =           0.2841
               GW ET     =           0.0000                 GW ET     =           0.0000
     SURFACE LEAKAGE     =           0.0000       SURFACE LEAKAGE     =           0.0000
           AWU WELLS     =           0.0000             AWU WELLS     =           0.0000

                TOTAL IN =   687745600.0000                  TOTAL IN =          16.5846

          OUT:                                     OUT:
          ----                                     ----
             STORAGE     =   157630672.0000               STORAGE     =           3.6396
       CONSTANT HEAD     =           0.0000         CONSTANT HEAD     =           0.0000
     HEAD DEP BOUNDS     =    11469262.0000       HEAD DEP BOUNDS     =           0.2974
      STREAM LEAKAGE     =   380195360.0000        STREAM LEAKAGE     =          12.5468
        UZF RECHARGE     =           0.0000          UZF RECHARGE     =           0.0000
               GW ET     =    55139752.0000                 GW ET     =           0.1001
     SURFACE LEAKAGE     =           0.0000       SURFACE LEAKAGE     =           0.0000
           AWU WELLS     =    83320120.0000             AWU WELLS     =           0.0000

               TOTAL OUT =   687755200.0000                 TOTAL OUT =          16.5840

                IN - OUT =       -9600.0000                  IN - OUT =       5.9700E-04

     PERCENT DISCREPANCY =          -0.00         PERCENT DISCREPANCY =           0.00






         TIME SUMMARY AT END OF TIME STEP   30 IN STRESS PERIOD   16
                    SECONDS     MINUTES      HOURS       DAYS        YEARS
                    -----------------------------------------------------------
   TIME STEP LENGTH  87600.      1460.0      24.333      1.0139     2.77588E-03
 STRESS PERIOD TIME 2.62800E+06  43800.      730.00      30.417     8.32763E-02
         TOTAL TIME 3.95064E+07 6.58440E+05  10974.      457.25      1.2519    
1
1
                            STRESS PERIOD NO.   17, LENGTH =   2628000.    
                            -----------------------------------------------

                              NUMBER OF TIME STEPS =    30

                               MULTIPLIER FOR DELT =     1.000

                            INITIAL TIME STEP SIZE =   87600.00    

 REUSING NON-PARAMETER GHB CELLS FROM LAST STRESS PERIOD

      2 GHB CELLS

 REUSING STREAM SEGMENT DATA FROM LAST STRESS PERIOD



            AREAL INFILTRATION RATE
 READING ON UNIT   19 WITH FORMAT: (10F4.0)            

            1           2           3           4           5           6           7           8           9          10
 ........................................................................................................................
   1   1.0000E-10  2.0000E-10   0.000       0.000       0.000       0.000       0.000       0.000       0.000       0.000    
   2   2.0000E-10  1.0000E-10  2.0000E-10   0.000       0.000      8.0000E-10  8.0000E-10  5.0000E-10   0.000       0.000    
   3    0.000      5.0000E-10  1.0000E-10  1.0000E-10  8.0000E-10  8.0000E-10  5.0000E-10  5.0000E-10   0.000       0.000    
   4   8.0000E-10  5.0000E-10  1.0000E-10  1.0000E-10  1.0000E-10  1.0000E-10  1.0000E-10  1.0000E-10  2.0000E-10   0.000    
   5   8.0000E-10  5.0000E-10  1.0000E-10  1.0000E-10  1.0000E-10  1.0000E-10  1.0000E-10  1.0000E-10  1.0000E-10  1.0000E-10
   6   8.0000E-10  5.0000E-10  5.0000E-10  2.0000E-10  2.0000E-10  1.0000E-10  1.0000E-10  1.0000E-10  1.0000E-10  5.0000E-10
   7   8.0000E-10  5.0000E-10  5.0000E-10  2.0000E-10  2.0000E-10  1.0000E-10  1.0000E-10  2.0000E-10  2.0000E-10   0.000    
   8    0.000      5.0000E-10  5.0000E-10  2.0000E-10  2.0000E-10  1.0000E-10  1.0000E-10  2.0000E-10  5.0000E-10   0.000    
   9    0.000      5.0000E-10  5.0000E-10  2.0000E-10  2.0000E-10  1.0000E-10  1.0000E-10  2.0000E-10  5.0000E-10   0.000    
  10    0.000      5.0000E-10  5.0000E-10  2.0000E-10  2.0000E-10  1.0000E-10  1.0000E-10  2.0000E-10  5.0000E-10  8.0000E-10
  11    0.000      1.0000E-10  1.0000E-10  1.0000E-10  1.0000E-10  1.0000E-10  1.0000E-10  2.0000E-10  5.0000E-10   0.000    
  12   1.0000E-10  1.0000E-10  1.0000E-10  1.0000E-10  1.0000E-10  1.0000E-10  1.0000E-10  1.0000E-10  2.0000E-10   0.000    
  13   1.0000E-10  1.0000E-10  2.0000E-10  2.0000E-10  2.0000E-10  2.0000E-10  2.0000E-10  1.0000E-10  1.0000E-10   0.000    
  14    0.000      2.0000E-10  5.0000E-10  5.0000E-10  5.0000E-10  5.0000E-10  5.0000E-10  2.0000E-10  1.0000E-10   0.000    
  15    0.000       0.000      8.0000E-10  8.0000E-10  8.0000E-10  8.0000E-10   0.000       0.000       0.000       0.000    

                  ET RATE =  5.000000E-09

 USING ET EXTINCTION DEPTH FROM PREVIOUS STRESS PERIOD. CURRENT PERIOD IS:      17

 USING EXTINCTION WATER CONTENT FROM PREVIOUS STRESS PERIOD. CURRENT PERIOD IS:      17

 PROCESSING AWU STRESS PERIOD DATA

 READING AWU STRESS PERIOD DATA

 READING IRRIGATION STREAM

 READING IRRIGATION WELL

 READING SUPPLEMENTAL WEL

 END PROCESSING AWU STRESS PERIOD DATA OPTIONS
 
 SOLVING FOR HEAD 
                                                   Max.-Head-Change                         Max.-Flux-Residual
  Residual-Control   Outer-Iter.   Inner-Iter.     Column Row Layer    Maximum-Head-Change  Column Row Layer    Maximum-Flux-Residual          L2-NORM 
          0                 1           2             4   13     1      -0.1410793102E-01       4   13    1        -0.8107731571E+00      0.1545909910E+01
          0                 2           2             4    7     1      -0.2139164392E-01       5    7    1        -0.1149904797E+01      0.2917778444E+01
          0                 3           2             4    7     1      -0.7199948404E-01       4    8    1        -0.3869892003E+01      0.9503280497E+01
          0                 4           2             4    7     1      -0.5132795821E-01       4    6    1        -0.2760372824E+01      0.6758117981E+01
          0                 5           2             4    7     1      -0.4157376594E-02       4    7    1        -0.2233454976E+00      0.5461431663E+00
          0                 6           2             4    7     1      -0.1088828963E-02       4    6    1        -0.5852532069E-01      0.1433274695E+00
          0                 7           2             4    7     1      -0.1768392160E-03       4    7    1        -0.9499198440E-02      0.2326357989E-01
          0                 8           1             4    7     1      -0.3434135147E-04       4    6    1        -0.1844843079E-02      0.4518780112E-02

    ------------------------------------------------
       NWT REQUIRED            8 OUTER ITERATIONS 
       AND A TOTAL OF         15 INNER ITERATIONS.
    ------------------------------------------------

 NO OUTPUT CONTROL FOR STRESS PERIOD   17   TIME STEP    1
 
 SOLVING FOR HEAD 
                                                   Max.-Head-Change                         Max.-Flux-Residual
  Residual-Control   Outer-Iter.   Inner-Iter.     Column Row Layer    Maximum-Head-Change  Column Row Layer    Maximum-Flux-Residual          L2-NORM 
          0                 1           2             5    8     1       0.6089490204E-02       5    8    1         0.3314359473E+00      0.8288640075E+00
          0                 2           2             5    8     1      -0.5923431214E-03       5    8    1        -0.3314371992E-01      0.7056145295E-01
          0                 3           1             5    8     1       0.4033635256E-04       5    8    1         0.2320060211E-02      0.4984394774E-02

    ------------------------------------------------
       NWT REQUIRED            3 OUTER ITERATIONS 
       AND A TOTAL OF          5 INNER ITERATIONS.
    ------------------------------------------------

 NO OUTPUT CONTROL FOR STRESS PERIOD   17   TIME STEP    2
 
 SOLVING FOR HEAD 
                                                   Max.-Head-Change                         Max.-Flux-Residual
  Residual-Control   Outer-Iter.   Inner-Iter.     Column Row Layer    Maximum-Head-Change  Column Row Layer    Maximum-Flux-Residual          L2-NORM 
          0                 1           2             5    8     1       0.5825735899E-02       5    8    1         0.3167002934E+00      0.8052379131E+00
          0                 2           2             5    8     1      -0.5666868456E-03       5    8    1        -0.3167014225E-01      0.6790847639E-01
          0                 3           1             5    8     1       0.3858925697E-04       5    8    1         0.2216909845E-02      0.4803234395E-02

    ------------------------------------------------
       NWT REQUIRED            3 OUTER ITERATIONS 
       AND A TOTAL OF          5 INNER ITERATIONS.
    ------------------------------------------------

 NO OUTPUT CONTROL FOR STRESS PERIOD   17   TIME STEP    3
 
 SOLVING FOR HEAD 
                                                   Max.-Head-Change                         Max.-Flux-Residual
  Residual-Control   Outer-Iter.   Inner-Iter.     Column Row Layer    Maximum-Head-Change  Column Row Layer    Maximum-Flux-Residual          L2-NORM 
          0                 1           2             5    6     1       0.5584347636E-02       5    8    1         0.3029672017E+00      0.7837637764E+00
          0                 2           2             5    6     1      -0.5432039069E-03       5    8    1        -0.3029682218E-01      0.6548267193E-01
          0                 3           1             5    6     1       0.3699014514E-04       5    8    1         0.2120777496E-02      0.4638272290E-02

    ------------------------------------------------
       NWT REQUIRED            3 OUTER ITERATIONS 
       AND A TOTAL OF          5 INNER ITERATIONS.
    ------------------------------------------------

 NO OUTPUT CONTROL FOR STRESS PERIOD   17   TIME STEP    4
 
 SOLVING FOR HEAD 
                                                   Max.-Head-Change                         Max.-Flux-Residual
  Residual-Control   Outer-Iter.   Inner-Iter.     Column Row Layer    Maximum-Head-Change  Column Row Layer    Maximum-Flux-Residual          L2-NORM 
          0                 1           2             5    6     1       0.5369448477E-02       5    6    1         0.2904586568E+00      0.7643352755E+00
          0                 2           2             5    6     1      -0.5223000792E-03       5    6    1        -0.2904588904E-01      0.6327692354E-01
          0                 3           1             5    6     1       0.3556667280E-04       5    6    1         0.2033212913E-02      0.4488085721E-02

    ------------------------------------------------
       NWT REQUIRED            3 OUTER ITERATIONS 
       AND A TOTAL OF          5 INNER ITERATIONS.
    ------------------------------------------------

 NO OUTPUT CONTROL FOR STRESS PERIOD   17   TIME STEP    5
 
 SOLVING FOR HEAD 
                                                   Max.-Head-Change                         Max.-Flux-Residual
  Residual-Control   Outer-Iter.   Inner-Iter.     Column Row Layer    Maximum-Head-Change  Column Row Layer    Maximum-Flux-Residual          L2-NORM 
          0                 1           2             5    6     1       0.5168073435E-02       5    6    1         0.2792748320E+00      0.7468011342E+00
          0                 2           2             5    6     1      -0.5027079652E-03       5    6    1        -0.2792750524E-01      0.6120204203E-01
          0                 3           1             5    6     1       0.3423152550E-04       5    6    1         0.1954926016E-02      0.4342468029E-02

    ------------------------------------------------
       NWT REQUIRED            3 OUTER ITERATIONS 
       AND A TOTAL OF          5 INNER ITERATIONS.
    ------------------------------------------------

 NO OUTPUT CONTROL FOR STRESS PERIOD   17   TIME STEP    6
 
 SOLVING FOR HEAD 
                                                   Max.-Head-Change                         Max.-Flux-Residual
  Residual-Control   Outer-Iter.   Inner-Iter.     Column Row Layer    Maximum-Head-Change  Column Row Layer    Maximum-Flux-Residual          L2-NORM 
          0                 1           2             5    6     1       0.4979510642E-02       5    6    1         0.2688094898E+00      0.7311149385E+00
          0                 2           2             5    6     1      -0.4843542812E-03       5    6    1        -0.2688096979E-01      0.5903302618E-01
          0                 3           1             5    6     1       0.3298281957E-04       5    6    1         0.1881668512E-02      0.4199449272E-02

    ------------------------------------------------
       NWT REQUIRED            3 OUTER ITERATIONS 
       AND A TOTAL OF          5 INNER ITERATIONS.
    ------------------------------------------------

 NO OUTPUT CONTROL FOR STRESS PERIOD   17   TIME STEP    7
 
 SOLVING FOR HEAD 
                                                   Max.-Head-Change                         Max.-Flux-Residual
  Residual-Control   Outer-Iter.   Inner-Iter.     Column Row Layer    Maximum-Head-Change  Column Row Layer    Maximum-Flux-Residual          L2-NORM 
          0                 1           2             4   13     1      -0.6087350286E-02       4   13    1        -0.3512242329E+00      0.9449034694E+00
          0                 2           2             4   13     1       0.7855780758E-02       4   13    1         0.4666316147E+00      0.8134531571E+00
          0                 3           2             4   13     1      -0.5269394497E-03       4   13    1        -0.3220143753E-01      0.5423515757E-01
          0                 4           1             4   13     1       0.2042486944E-04       4   13    1         0.1287966777E-02      0.2091189755E-02

    ------------------------------------------------
       NWT REQUIRED            4 OUTER ITERATIONS 
       AND A TOTAL OF          7 INNER ITERATIONS.
    ------------------------------------------------

 NO OUTPUT CONTROL FOR STRESS PERIOD   17   TIME STEP    8
 
 SOLVING FOR HEAD 
                                                   Max.-Head-Change                         Max.-Flux-Residual
  Residual-Control   Outer-Iter.   Inner-Iter.     Column Row Layer    Maximum-Head-Change  Column Row Layer    Maximum-Flux-Residual          L2-NORM 
          0                 1           2             4   13     1      -0.1925294403E-01       4   13    1        -0.1104681040E+01      0.2054839765E+01
          0                 2           2             4   13     1       0.2171027391E-01       4   13    1         0.1289667182E+01      0.2257467866E+01
          0                 3           2             7   13     1      -0.4189533285E-02       7   13    1        -0.2392174793E+00      0.2768435071E+00
          0                 4           2             7   13     1      -0.2476347576E-03       7   13    1        -0.1413371804E-01      0.1508850781E-01
          0                 5           1             7   13     1      -0.1464504075E-04       7   13    1        -0.8355171112E-03      0.8408227817E-03

    ------------------------------------------------
       NWT REQUIRED            5 OUTER ITERATIONS 
       AND A TOTAL OF          9 INNER ITERATIONS.
    ------------------------------------------------

 NO OUTPUT CONTROL FOR STRESS PERIOD   17   TIME STEP    9
 
 SOLVING FOR HEAD 
                                                   Max.-Head-Change                         Max.-Flux-Residual
  Residual-Control   Outer-Iter.   Inner-Iter.     Column Row Layer    Maximum-Head-Change  Column Row Layer    Maximum-Flux-Residual          L2-NORM 
          0                 1           2             4   13     1      -0.1935879542E-01       4   13    1        -0.1110813637E+01      0.2058375210E+01
          0                 2           2             4   13     1       0.2171243186E-01       4   13    1         0.1289800052E+01      0.2257541031E+01
          0                 3           2             7   13     1      -0.4187848507E-02       7   13    1        -0.2391194204E+00      0.2767664647E+00
          0                 4           2             7   13     1      -0.2475256717E-03       7   13    1        -0.1412738343E-01      0.1508271599E-01
          0                 5           1             7   13     1      -0.1463999762E-04       7   13    1        -0.8352261625E-03      0.8404658089E-03

    ------------------------------------------------
       NWT REQUIRED            5 OUTER ITERATIONS 
       AND A TOTAL OF          9 INNER ITERATIONS.
    ------------------------------------------------

 NO OUTPUT CONTROL FOR STRESS PERIOD   17   TIME STEP   10
 
 SOLVING FOR HEAD 
                                                   Max.-Head-Change                         Max.-Flux-Residual
  Residual-Control   Outer-Iter.   Inner-Iter.     Column Row Layer    Maximum-Head-Change  Column Row Layer    Maximum-Flux-Residual          L2-NORM 
          0                 1           2             4   13     1      -0.1945306315E-01       4   13    1        -0.1116272836E+01      0.2061605630E+01
          0                 2           2             4   13     1       0.2171420812E-01       4   13    1         0.1289909746E+01      0.2257600222E+01
          0                 3           2             7   13     1      -0.4186139023E-02       7   13    1        -0.2390200245E+00      0.2766876526E+00
          0                 4           2             7   13     1      -0.2474393455E-03       7   13    1        -0.1412235342E-01      0.1507858424E-01
          0                 5           1             7   13     1      -0.1463445486E-04       7   13    1        -0.8349026964E-03      0.8402238934E-03

    ------------------------------------------------
       NWT REQUIRED            5 OUTER ITERATIONS 
       AND A TOTAL OF          9 INNER ITERATIONS.
    ------------------------------------------------

 NO OUTPUT CONTROL FOR STRESS PERIOD   17   TIME STEP   11
 
 SOLVING FOR HEAD 
                                                   Max.-Head-Change                         Max.-Flux-Residual
  Residual-Control   Outer-Iter.   Inner-Iter.     Column Row Layer    Maximum-Head-Change  Column Row Layer    Maximum-Flux-Residual          L2-NORM 
          0                 1           2             4   13     1      -0.1953697409E-01       4   13    1        -0.1121130035E+01      0.2064490944E+01
          0                 2           2             4   13     1       0.2171563009E-01       4   13    1         0.1289997895E+01      0.2257641417E+01
          0                 3           2             7   13     1      -0.4184441091E-02       7   13    1        -0.2389213864E+00      0.2766085748E+00
          0                 4           2             7   13     1      -0.2473423717E-03       7   13    1        -0.1411671749E-01      0.1507333354E-01
          0                 5           1             7   13     1      -0.1462982142E-04       7   13    1        -0.8346375007E-03      0.8399818992E-03

    ------------------------------------------------
       NWT REQUIRED            5 OUTER ITERATIONS 
       AND A TOTAL OF          9 INNER ITERATIONS.
    ------------------------------------------------

 NO OUTPUT CONTROL FOR STRESS PERIOD   17   TIME STEP   12
 
 SOLVING FOR HEAD 
                                                   Max.-Head-Change                         Max.-Flux-Residual
  Residual-Control   Outer-Iter.   Inner-Iter.     Column Row Layer    Maximum-Head-Change  Column Row Layer    Maximum-Flux-Residual          L2-NORM 
          0                 1           2             4   13     1      -0.1961176554E-01       4   13    1        -0.1125457382E+01      0.2067060436E+01
          0                 2           2             4   13     1       0.2171672108E-01       4   13    1         0.1290065972E+01      0.2257663736E+01
          0                 3           2             7   13     1      -0.4182743809E-02       7   13    1        -0.2388228604E+00      0.2765306021E+00
          0                 4           2             7   13     1      -0.2472462135E-03       7   13    1        -0.1411114172E-01      0.1506930313E-01
          0                 5           1             7   13     1      -0.1462409737E-04       7   13    1        -0.8342990909E-03      0.8397276076E-03

    ------------------------------------------------
       NWT REQUIRED            5 OUTER ITERATIONS 
       AND A TOTAL OF          9 INNER ITERATIONS.
    ------------------------------------------------

 NO OUTPUT CONTROL FOR STRESS PERIOD   17   TIME STEP   13
 
 SOLVING FOR HEAD 
                                                   Max.-Head-Change                         Max.-Flux-Residual
  Residual-Control   Outer-Iter.   Inner-Iter.     Column Row Layer    Maximum-Head-Change  Column Row Layer    Maximum-Flux-Residual          L2-NORM 
          0                 1           2             4   13     1      -0.1967840839E-01       4   13    1        -0.1129311436E+01      0.2069386982E+01
          0                 2           2             4   13     1       0.2171755610E-01       4   13    1         0.1290118473E+01      0.2257677743E+01
          0                 3           2             7   13     1      -0.4181051528E-02       7   13    1        -0.2387246971E+00      0.2764509300E+00
          0                 4           2             7   13     1      -0.2471478945E-03       7   13    1        -0.1410543702E-01      0.1506393528E-01
          0                 5           1             7   13     1      -0.1461900666E-04       7   13    1        -0.8340048159E-03      0.8394650311E-03

    ------------------------------------------------
       NWT REQUIRED            5 OUTER ITERATIONS 
       AND A TOTAL OF          9 INNER ITERATIONS.
    ------------------------------------------------

 NO OUTPUT CONTROL FOR STRESS PERIOD   17   TIME STEP   14
 
 SOLVING FOR HEAD 
                                                   Max.-Head-Change                         Max.-Flux-Residual
  Residual-Control   Outer-Iter.   Inner-Iter.     Column Row Layer    Maximum-Head-Change  Column Row Layer    Maximum-Flux-Residual          L2-NORM 
          0                 1           2             4   13     1      -0.1071890048E-01       4   13    1        -0.6176495641E+00      0.1249899904E+01
          0                 2           2             4   13     1       0.1217067120E-01       4   13    1         0.7230156837E+00      0.1255862531E+01
          0                 3           2             4   13     1      -0.8157950318E-03       4   13    1        -0.4989543205E-01      0.8343529623E-01
          0                 4           1             4   13     1       0.3167120037E-04       4   13    1         0.1995058553E-02      0.3188302607E-02

    ------------------------------------------------
       NWT REQUIRED            4 OUTER ITERATIONS 
       AND A TOTAL OF          7 INNER ITERATIONS.
    ------------------------------------------------

 NO OUTPUT CONTROL FOR STRESS PERIOD   17   TIME STEP   15
 
 SOLVING FOR HEAD 
                                                   Max.-Head-Change                         Max.-Flux-Residual
  Residual-Control   Outer-Iter.   Inner-Iter.     Column Row Layer    Maximum-Head-Change  Column Row Layer    Maximum-Flux-Residual          L2-NORM 
          0                 1           2             1    1     1       0.4488885004E-02       1    1    1         0.2331953018E+00      0.6368670726E+00
          0                 2           2             5    6     1      -0.3619533973E-03       5    6    1        -0.1991893381E-01      0.4810218339E-01
          0                 3           1             5    6     1       0.2464777271E-04       5    6    1         0.1394325848E-02      0.3460422019E-02

    ------------------------------------------------
       NWT REQUIRED            3 OUTER ITERATIONS 
       AND A TOTAL OF          5 INNER ITERATIONS.
    ------------------------------------------------

 NO OUTPUT CONTROL FOR STRESS PERIOD   17   TIME STEP   16
 
 SOLVING FOR HEAD 
                                                   Max.-Head-Change                         Max.-Flux-Residual
  Residual-Control   Outer-Iter.   Inner-Iter.     Column Row Layer    Maximum-Head-Change  Column Row Layer    Maximum-Flux-Residual          L2-NORM 
          0                 1           2             1    1     1       0.4484015698E-02       1    1    1         0.2329417387E+00      0.6299835028E+00
          0                 2           2             5    6     1      -0.3520045338E-03       5    6    1        -0.1935514474E-01      0.4730326128E-01
          0                 3           1             5    6     1       0.2397029239E-04       5    6    1         0.1354860602E-02      0.3406887208E-02

    ------------------------------------------------
       NWT REQUIRED            3 OUTER ITERATIONS 
       AND A TOTAL OF          5 INNER ITERATIONS.
    ------------------------------------------------

 NO OUTPUT CONTROL FOR STRESS PERIOD   17   TIME STEP   17
 
 SOLVING FOR HEAD 
                                                   Max.-Head-Change                         Max.-Flux-Residual
  Residual-Control   Outer-Iter.   Inner-Iter.     Column Row Layer    Maximum-Head-Change  Column Row Layer    Maximum-Flux-Residual          L2-NORM 
          0                 1           2             1    1     1       0.4479165982E-02       1    1    1         0.2326891959E+00      0.6235558205E+00
          0                 2           2             5    6     1      -0.3426031502E-03       5    6    1        -0.1882278532E-01      0.4655834139E-01
          0                 3           1             5    6     1       0.2333009356E-04       5    6    1         0.1317595428E-02      0.3356853513E-02

    ------------------------------------------------
       NWT REQUIRED            3 OUTER ITERATIONS 
       AND A TOTAL OF          5 INNER ITERATIONS.
    ------------------------------------------------

 NO OUTPUT CONTROL FOR STRESS PERIOD   17   TIME STEP   18
 
 SOLVING FOR HEAD 
                                                   Max.-Head-Change                         Max.-Flux-Residual
  Residual-Control   Outer-Iter.   Inner-Iter.     Column Row Layer    Maximum-Head-Change  Column Row Layer    Maximum-Flux-Residual          L2-NORM 
          0                 1           2             1    1     1       0.4474335749E-02       1    1    1         0.2324376691E+00      0.6175658801E+00
          0                 2           2             5    6     1      -0.3337120167E-03       5    6    1        -0.1831963029E-01      0.4586418131E-01
          0                 3           1             1    2     1       0.2323458885E-04       5    6    1         0.1282374562E-02      0.3310371478E-02

    ------------------------------------------------
       NWT REQUIRED            3 OUTER ITERATIONS 
       AND A TOTAL OF          5 INNER ITERATIONS.
    ------------------------------------------------

 NO OUTPUT CONTROL FOR STRESS PERIOD   17   TIME STEP   19
 
 SOLVING FOR HEAD 
                                                   Max.-Head-Change                         Max.-Flux-Residual
  Residual-Control   Outer-Iter.   Inner-Iter.     Column Row Layer    Maximum-Head-Change  Column Row Layer    Maximum-Flux-Residual          L2-NORM 
          0                 1           2             1    1     1       0.4469524864E-02       1    1    1         0.2321871526E+00      0.6119583338E+00
          0                 2           2             5    6     1      -0.3252962915E-03       5    6    1        -0.1784369377E-01      0.4521830538E-01
          0                 3           1             1    2     1       0.2329962923E-04       5    6    1         0.1249059003E-02      0.3267225864E-02

    ------------------------------------------------
       NWT REQUIRED            3 OUTER ITERATIONS 
       AND A TOTAL OF          5 INNER ITERATIONS.
    ------------------------------------------------

 NO OUTPUT CONTROL FOR STRESS PERIOD   17   TIME STEP   20
 
 SOLVING FOR HEAD 
                                                   Max.-Head-Change                         Max.-Flux-Residual
  Residual-Control   Outer-Iter.   Inner-Iter.     Column Row Layer    Maximum-Head-Change  Column Row Layer    Maximum-Flux-Residual          L2-NORM 
          0                 1           2             1    1     1       0.4464733240E-02       1    1    1         0.2319376392E+00      0.6067123496E+00
          0                 2           2             5    6     1      -0.3173530342E-03       5    6    1        -0.1739477748E-01      0.4461477783E-01
          0                 3           1             1    2     1       0.2336424141E-04       5    6    1         0.1217634847E-02      0.3226872200E-02

    ------------------------------------------------
       NWT REQUIRED            3 OUTER ITERATIONS 
       AND A TOTAL OF          5 INNER ITERATIONS.
    ------------------------------------------------

 NO OUTPUT CONTROL FOR STRESS PERIOD   17   TIME STEP   21
 
 SOLVING FOR HEAD 
                                                   Max.-Head-Change                         Max.-Flux-Residual
  Residual-Control   Outer-Iter.   Inner-Iter.     Column Row Layer    Maximum-Head-Change  Column Row Layer    Maximum-Flux-Residual          L2-NORM 
          0                 1           2             1    1     1       0.4459960775E-02       1    1    1         0.2316891249E+00      0.6017830856E+00
          0                 2           2             5    7     1      -0.3107809922E-03       5    6    1        -0.1697106453E-01      0.4404890187E-01
          0                 3           1             1    2     1       0.2342842666E-04       5    6    1         0.1187974937E-02      0.3189165472E-02

    ------------------------------------------------
       NWT REQUIRED            3 OUTER ITERATIONS 
       AND A TOTAL OF          5 INNER ITERATIONS.
    ------------------------------------------------

 NO OUTPUT CONTROL FOR STRESS PERIOD   17   TIME STEP   22
 
 SOLVING FOR HEAD 
                                                   Max.-Head-Change                         Max.-Flux-Residual
  Residual-Control   Outer-Iter.   Inner-Iter.     Column Row Layer    Maximum-Head-Change  Column Row Layer    Maximum-Flux-Residual          L2-NORM 
          0                 1           2             1    1     1       0.4455207360E-02       1    1    1         0.2314416039E+00      0.5971666462E+00
          0                 2           2             5    7     1      -0.3063986208E-03       5    7    1        -0.1661788906E-01      0.4356343114E-01
          0                 3           1             1    2     1       0.2349218772E-04       5    7    1         0.1163252661E-02      0.3172396500E-02

    ------------------------------------------------
       NWT REQUIRED            3 OUTER ITERATIONS 
       AND A TOTAL OF          5 INNER ITERATIONS.
    ------------------------------------------------

 NO OUTPUT CONTROL FOR STRESS PERIOD   17   TIME STEP   23
 
 SOLVING FOR HEAD 
                                                   Max.-Head-Change                         Max.-Flux-Residual
  Residual-Control   Outer-Iter.   Inner-Iter.     Column Row Layer    Maximum-Head-Change  Column Row Layer    Maximum-Flux-Residual          L2-NORM 
          0                 1           2             4   13     1      -0.1165597423E-01       4   13    1        -0.6715241627E+00      0.1303913469E+01
          0                 2           2             4   13     1       0.1283226469E-01       4   13    1         0.7623317563E+00      0.1323650705E+01
          0                 3           2             4   13     1      -0.8601829738E-03       4   13    1        -0.5261265460E-01      0.8798928397E-01
          0                 4           1             4   13     1       0.3340053494E-04       4   13    1         0.2103941257E-02      0.3363851654E-02

    ------------------------------------------------
       NWT REQUIRED            4 OUTER ITERATIONS 
       AND A TOTAL OF          7 INNER ITERATIONS.
    ------------------------------------------------

 NO OUTPUT CONTROL FOR STRESS PERIOD   17   TIME STEP   24
 
 SOLVING FOR HEAD 
                                                   Max.-Head-Change                         Max.-Flux-Residual
  Residual-Control   Outer-Iter.   Inner-Iter.     Column Row Layer    Maximum-Head-Change  Column Row Layer    Maximum-Flux-Residual          L2-NORM 
          0                 1           2             4   13     1      -0.2007326013E-01       4   13    1        -0.1152074721E+01      0.2083378234E+01
          0                 2           2             4   13     1       0.2171582893E-01       4   13    1         0.1290032735E+01      0.2257377902E+01
          0                 3           2             7   13     1      -0.4162850751E-02       7   13    1        -0.2376721792E+00      0.2755892590E+00
          0                 4           2             7   13     1      -0.2460960066E-03       7   13    1        -0.1404463026E-01      0.1500880276E-01
          0                 5           1             7   13     1      -0.1455713317E-04       7   13    1        -0.8304292805E-03      0.8360180927E-03

    ------------------------------------------------
       NWT REQUIRED            5 OUTER ITERATIONS 
       AND A TOTAL OF          9 INNER ITERATIONS.
    ------------------------------------------------

 NO OUTPUT CONTROL FOR STRESS PERIOD   17   TIME STEP   25
 
 SOLVING FOR HEAD 
                                                   Max.-Head-Change                         Max.-Flux-Residual
  Residual-Control   Outer-Iter.   Inner-Iter.     Column Row Layer    Maximum-Head-Change  Column Row Layer    Maximum-Flux-Residual          L2-NORM 
          0                 1           2             4   13     1      -0.2009044189E-01       4   13    1        -0.1153059254E+01      0.2083927398E+01
          0                 2           2             4   13     1       0.2171515499E-01       4   13    1         0.1289993446E+01      0.2257327909E+01
          0                 3           2             7   13     1      -0.4161242941E-02       7   13    1        -0.2375794228E+00      0.2755143329E+00
          0                 4           2             7   13     1      -0.2460020348E-03       7   13    1        -0.1403921145E-01      0.1500509388E-01
          0                 5           1             7   13     1      -0.1455182874E-04       7   13    1        -0.8301248372E-03      0.8371556477E-03

    ------------------------------------------------
       NWT REQUIRED            5 OUTER ITERATIONS 
       AND A TOTAL OF          9 INNER ITERATIONS.
    ------------------------------------------------

 NO OUTPUT CONTROL FOR STRESS PERIOD   17   TIME STEP   26
 
 SOLVING FOR HEAD 
                                                   Max.-Head-Change                         Max.-Flux-Residual
  Residual-Control   Outer-Iter.   Inner-Iter.     Column Row Layer    Maximum-Head-Change  Column Row Layer    Maximum-Flux-Residual          L2-NORM 
          0                 1           2             4   13     1      -0.2010586342E-01       4   13    1        -0.1153941906E+01      0.2084402145E+01
          0                 2           2             4   13     1       0.2171440002E-01       4   13    1         0.1289949243E+01      0.2257274420E+01
          0                 3           2             7   13     1      -0.4159640990E-02       7   13    1        -0.2374870254E+00      0.2754371182E+00
          0                 4           2             7   13     1      -0.2459128216E-03       7   13    1        -0.1403406408E-01      0.1500024372E-01
          0                 5           1             7   13     1      -0.1454496769E-04       7   13    1        -0.8297295894E-03      0.8353160483E-03

    ------------------------------------------------
       NWT REQUIRED            5 OUTER ITERATIONS 
       AND A TOTAL OF          9 INNER ITERATIONS.
    ------------------------------------------------

 NO OUTPUT CONTROL FOR STRESS PERIOD   17   TIME STEP   27
 
 SOLVING FOR HEAD 
                                                   Max.-Head-Change                         Max.-Flux-Residual
  Residual-Control   Outer-Iter.   Inner-Iter.     Column Row Layer    Maximum-Head-Change  Column Row Layer    Maximum-Flux-Residual          L2-NORM 
          0                 1           2             4   13     1      -0.2011968455E-01       4   13    1        -0.1154732060E+01      0.2084804619E+01
          0                 2           2             4   13     1       0.2171360653E-01       4   13    1         0.1289902705E+01      0.2257217781E+01
          0                 3           2             7   13     1      -0.4158055170E-02       7   13    1        -0.2373955876E+00      0.2753613603E+00
          0                 4           2             7   13     1      -0.2458162279E-03       7   13    1        -0.1402850001E-01      0.1499575892E-01
          0                 5           1             7   13     1      -0.1454091671E-04       7   13    1        -0.8294943741E-03      0.8352511553E-03

    ------------------------------------------------
       NWT REQUIRED            5 OUTER ITERATIONS 
       AND A TOTAL OF          9 INNER ITERATIONS.
    ------------------------------------------------

 NO OUTPUT CONTROL FOR STRESS PERIOD   17   TIME STEP   28
 
 SOLVING FOR HEAD 
                                                   Max.-Head-Change                         Max.-Flux-Residual
  Residual-Control   Outer-Iter.   Inner-Iter.     Column Row Layer    Maximum-Head-Change  Column Row Layer    Maximum-Flux-Residual          L2-NORM 
          0                 1           2             4   13     1      -0.2013217334E-01       4   13    1        -0.1155445192E+01      0.2085147380E+01
          0                 2           2             4   13     1       0.2171280173E-01       4   13    1         0.1289855432E+01      0.2257161911E+01
          0                 3           2             7   13     1      -0.4156475699E-02       7   13    1        -0.2373045237E+00      0.2752863634E+00
          0                 4           2             7   13     1      -0.2457249414E-03       7   13    1        -0.1402323952E-01      0.1499120521E-01
          0                 5           1             7   13     1      -0.1453504260E-04       7   13    1        -0.8291541212E-03      0.8349523749E-03

    ------------------------------------------------
       NWT REQUIRED            5 OUTER ITERATIONS 
       AND A TOTAL OF          9 INNER ITERATIONS.
    ------------------------------------------------

 NO OUTPUT CONTROL FOR STRESS PERIOD   17   TIME STEP   29
 
 SOLVING FOR HEAD 
                                                   Max.-Head-Change                         Max.-Flux-Residual
  Residual-Control   Outer-Iter.   Inner-Iter.     Column Row Layer    Maximum-Head-Change  Column Row Layer    Maximum-Flux-Residual          L2-NORM 
          0                 1           2             4   13     1      -0.2177268020E-01       4   13    1        -0.1248668868E+01      0.2235262919E+01
          0                 2           2             4   13     1       0.2174748179E-01       4   13    1         0.1291181290E+01      0.2257643332E+01
          0                 3           2             7   13     1      -0.3839973097E-02       7   13    1        -0.2191980150E+00      0.2605092697E+00
          0                 4           2             7   13     1      -0.2270771406E-03       7   13    1        -0.1295686766E-01      0.1402845788E-01
          0                 5           1             7   13     1      -0.1343535864E-04       7   13    1        -0.7662955309E-03      0.7732880895E-03

    ------------------------------------------------
       NWT REQUIRED            5 OUTER ITERATIONS 
       AND A TOTAL OF          9 INNER ITERATIONS.
    ------------------------------------------------

 NO OUTPUT CONTROL FOR STRESS PERIOD   17   TIME STEP   30



 STREAM LISTING     PERIOD     17   STEP       30

 LAYER ROW COL. STREAM  RCH.  FLOW INTO     FLOW TO   FLOW OUT OF   OVRLND.     DIRECT     STREAM       STREAM     STREAM     STREAM   STREAMBED  STREAMBED
                SEG.NO.  NO.  STRM. RCH.    AQUIFER    STRM. RCH.    RUNOFF     PRECIP       ET          HEAD       DEPTH      WIDTH   CONDCTNC.   GRADIENT

   1    1    1     1     1    7.0288E+01  4.0691E-01   6.9881E+01  0.000E+00  0.000E+00  0.000E+00  1.09469E+03  1.646E+00  1.946E+01  8.759E-02  1.549E+00
   1    2    2     1     2    6.9881E+01  6.3029E-01   6.9250E+01  0.000E+00  0.000E+00  0.000E+00  1.08970E+03  1.640E+00  1.941E+01  1.358E-01  1.547E+00
   1    3    3     1     3    6.9250E+01  5.3766E-01   6.8713E+01  0.000E+00  0.000E+00  0.000E+00  1.08405E+03  1.633E+00  1.934E+01  1.160E-01  1.544E+00
   1    3    4     1     4    6.8713E+01  4.9521E-01   6.8218E+01  0.000E+00  0.000E+00  0.000E+00  1.07904E+03  1.627E+00  1.928E+01  1.070E-01  1.542E+00
   1    4    5     2     1    6.6218E+01  4.0267E-01   6.5815E+01  0.000E+00  0.000E+00  0.000E+00  1.07410E+03  2.162E+00  1.200E+01  7.800E-02  1.721E+00
   1    5    6     2     2    6.5815E+01  3.0932E-01   6.5506E+01  0.000E+00  0.000E+00  0.000E+00  1.06866E+03  2.155E+00  1.200E+01  6.000E-02  1.718E+00
   1    6    6     2     3    6.5506E+01  3.0896E-01   6.5197E+01  0.000E+00  0.000E+00  0.000E+00  1.06394E+03  2.149E+00  1.200E+01  6.000E-02  1.716E+00
   1    7    6     2     4    6.5197E+01  3.0859E-01   6.4888E+01  0.000E+00  0.000E+00  0.000E+00  1.05922E+03  2.143E+00  1.200E+01  6.000E-02  1.714E+00
   1    8    6     2     5    6.4888E+01  3.0823E-01   6.4580E+01  0.000E+00  0.000E+00  0.000E+00  1.05450E+03  2.137E+00  1.200E+01  6.000E-02  1.712E+00
   1    3    5     3     1    2.0000E+00  2.8252E-01   1.7175E+00  0.000E+00  0.000E+00  0.000E+00  1.07555E+03  1.909E+00  9.636E+00  7.227E-02  1.955E+00
   1    3    6     3     2    1.7175E+00  2.4905E-01   1.4684E+00  0.000E+00  0.000E+00  0.000E+00  1.07264E+03  1.727E+00  8.909E+00  6.682E-02  1.864E+00
   1    3    7     3     3    1.4684E+00  1.9718E-01   1.2712E+00  0.000E+00  0.000E+00  0.000E+00  1.06987E+03  1.555E+00  8.218E+00  5.547E-02  1.777E+00
   1    4    8     3     4    1.2712E+00  2.2567E-01   1.0456E+00  0.000E+00  0.000E+00  0.000E+00  1.06682E+03  1.364E+00  7.455E+00  6.709E-02  1.682E+00
   1    5    8     3     5    1.0456E+00  1.5790E-01   8.8768E-01  0.000E+00  0.000E+00  0.000E+00  1.06362E+03  1.164E+00  6.655E+00  4.991E-02  1.582E+00
   1    6    8     3     6    8.8768E-01  5.5980E-02   8.3170E-01  0.000E+00  0.000E+00  0.000E+00  1.06158E+03  1.036E+00  6.145E+00  1.844E-02  1.518E+00
   1    5   10     4     1    1.0000E+01  9.0919E-02   9.9091E+00  0.000E+00  0.000E+00  0.000E+00  1.07836E+03  6.368E-01  1.000E+01  2.500E-02  1.212E+00
   1    5    9     4     2    9.9091E+00  1.8158E-01   9.7275E+00  0.000E+00  0.000E+00  0.000E+00  1.07154E+03  6.315E-01  1.000E+01  5.000E-02  1.211E+00
   1    6    8     4     3    9.7275E+00  1.2689E-01   9.6006E+00  0.000E+00  0.000E+00  0.000E+00  1.06381E+03  6.256E-01  1.000E+01  3.500E-02  1.209E+00
   1    6    8     5     1    1.0432E+01  2.2686E-01   1.0205E+01  0.000E+00  0.000E+00  0.000E+00  1.05868E+03  6.790E-01  1.542E+01  6.166E-02  1.226E+00
   1    7    7     5     2    1.0205E+01  2.7894E-01   9.9265E+00  0.000E+00  0.000E+00  0.000E+00  1.05417E+03  6.732E-01  1.519E+01  7.594E-02  1.224E+00
   1    8    7     5     3    9.9265E+00  1.9221E-01   9.7343E+00  0.000E+00  0.000E+00  0.000E+00  1.04992E+03  6.676E-01  1.497E+01  5.241E-02  1.223E+00
   1    8    6     5     4    9.7343E+00  1.3577E-01   9.5985E+00  0.000E+00  0.000E+00  0.000E+00  1.04691E+03  6.637E-01  1.482E+01  3.706E-02  1.221E+00
   1    9    6     6     1    7.4178E+01  3.2052E-01   7.3858E+01  0.000E+00  0.000E+00  0.000E+00  1.04507E+03  2.342E+00  1.200E+01  6.000E-02  1.781E+00
   1   10    7     6     2    7.3858E+01  3.2015E-01   7.3538E+01  0.000E+00  0.000E+00  0.000E+00  1.04052E+03  2.336E+00  1.200E+01  6.000E-02  1.779E+00
   1   11    7     6     3    7.3538E+01  3.1979E-01   7.3218E+01  0.000E+00  0.000E+00  0.000E+00  1.03597E+03  2.330E+00  1.200E+01  6.000E-02  1.777E+00
   1   12    7     6     4    7.3218E+01  3.1942E-01   7.2898E+01  0.000E+00  0.000E+00  0.000E+00  1.03141E+03  2.324E+00  1.200E+01  6.000E-02  1.775E+00
   1   13    7     6     5    7.2898E+01  2.5485E-02   7.2873E+01  0.000E+00  0.000E+00  0.000E+00  1.02823E+03  2.320E+00  1.200E+01  2.400E-02  3.540E-01
   1   14    9     7     1    1.5000E+02  1.3333E+00   1.4867E+02  0.000E+00  0.000E+00  0.000E+00  1.03987E+03  2.288E+00  5.529E+01  5.593E-01  7.946E-01
   1   13    8     7     2    1.4867E+02  1.8150E+00   1.4685E+02  0.000E+00  0.000E+00  0.000E+00  1.03478E+03  2.279E+00  5.526E+01  6.148E-01  9.841E-01
   1   13    7     7     3    1.4685E+02  1.4087E+00   1.4544E+02  0.000E+00  0.000E+00  0.000E+00  1.02969E+03  2.271E+00  5.522E+01  5.585E-01  8.408E-01
   1   13    6     8     1    2.1832E+02  1.0488E+00   2.1727E+02  0.000E+00  0.000E+00  0.000E+00  1.02511E+03  3.240E+00  4.697E+01  4.787E-01  7.303E-01
   1   13    5     8     2    2.1727E+02  2.3221E-01   2.1704E+02  0.000E+00  0.000E+00  0.000E+00  1.01886E+03  3.236E+00  4.692E+01  4.782E-01  1.619E-01
   1   13    4     8     3    2.1704E+02 -2.3913E+00   2.1943E+02  0.000E+00  0.000E+00  0.000E+00  1.01262E+03  3.242E+00  4.701E+01  4.790E+00 -1.664E-01
   1   13    3     8     4    2.1943E+02 -3.6164E+00   2.2304E+02  0.000E+00  0.000E+00  0.000E+00  1.00638E+03  3.259E+00  4.725E+01  4.815E+00 -2.504E-01
   1   13    2     8     5    2.2304E+02 -2.5536E+00   2.2560E+02  0.000E+00  0.000E+00  0.000E+00  1.00015E+03  3.276E+00  4.750E+01  4.840E+00 -1.759E-01
   1   13    1     8     6    2.2560E+02 -1.9150E+00   2.2751E+02  0.000E+00  0.000E+00  0.000E+00  9.95163E+02  3.288E+00  4.767E+01  2.915E+00 -2.190E-01
   1    8    6     9     1    0.0000E+00  0.0000E+00   0.0000E+00  0.000E+00  0.000E+00  0.000E+00  1.07875E+03  0.000E+00  4.000E+00  0.000E+00  1.000E+00
   1    8    5     9     2    0.0000E+00  0.0000E+00   0.0000E+00  0.000E+00  0.000E+00  0.000E+00  1.07825E+03  0.000E+00  4.000E+00  0.000E+00  1.000E+00





UNSATURATED ZONE PACKAGE VOLUMETRIC BUDGET FOR  TIME STEP    30 STRESS PERIOD   17
  ------------------------------------------------------------------------------



     CUMULATIVE VOLUMES      L**3       RATES FOR THIS TIME STEP      L**3/T
     ------------------                 ------------------------

           IN:                                      IN:
           ---                                      ---
        INFILTRATION =   195716030.4875          INFILTRATION =           0.8475

          OUT:                                     OUT:
          ----                                     ----
              UZF ET =   101218652.4475                UZF ET =           2.1665
        UZF RECHARGE =    10929329.7500          UZF RECHARGE =           0.2636

            IN - OUT =    83568048.2899              IN - OUT =          -1.5826

          STORAGE:                                 STORAGE:
          --------                                 --------
      STORAGE CHANGE =    83646179.9329        STORAGE CHANGE =          -1.5826

 PERCENT DISCREPANCY IS DIFFERENCE BETWEEN IN-OUT MINUS CHANGE IN STORAGE
 DIVIDED BY THE AVERAGE OF IN AND OUT TIMES 100

 PERCENT DISCREPANCY =          -0.01     PERCENT DISCREPANCY =          -0.00






1
  VOLUMETRIC BUDGET FOR ENTIRE MODEL AT END OF TIME STEP   30, STRESS PERIOD  17
  ------------------------------------------------------------------------------

     CUMULATIVE VOLUMES      L**3       RATES FOR THIS TIME STEP      L**3/T
     ------------------                 ------------------------

           IN:                                      IN:
           ---                                      ---
               AWU WELLS =    87854424.0000                 AWU WELLS =           0.0000
      DIVERSION SEGMENTS =    72151824.0000        DIVERSION SEGMENTS =           0.0000
           GW IRRIGATION =           0.0000             GW IRRIGATION =           0.0000
           SW IRRIGATION =           0.0000             SW IRRIGATION =           0.0000
        SYSTEM LOSSES GW =           0.0000          SYSTEM LOSSES GW =           0.0000
        SYSTEM LOSSES SW =           0.0000          SYSTEM LOSSES SW =           0.0000

                TOTAL IN =   160006240.0000                  TOTAL IN =           0.0000

          OUT:                                     OUT:
          ----                                     ----
               AWU WELLS =           0.0000                 AWU WELLS =           0.0000
      DIVERSION SEGMENTS =           0.0000        DIVERSION SEGMENTS =           0.0000
           GW IRRIGATION =    87854424.0000             GW IRRIGATION =           0.0000
           SW IRRIGATION =    72153256.0000             SW IRRIGATION =           0.0000
        SYSTEM LOSSES GW =           0.0000          SYSTEM LOSSES GW =           0.0000
        SYSTEM LOSSES SW =           0.0000          SYSTEM LOSSES SW =           0.0000

               TOTAL OUT =   160007680.0000                 TOTAL OUT =           0.0000

                IN - OUT =       -1440.0000                  IN - OUT =           0.0000

     PERCENT DISCREPANCY =          -0.00         PERCENT DISCREPANCY =           0.00



1
  VOLUMETRIC BUDGET FOR ENTIRE MODEL AT END OF TIME STEP   30, STRESS PERIOD  17
  ------------------------------------------------------------------------------

     CUMULATIVE VOLUMES      L**3       RATES FOR THIS TIME STEP      L**3/T
     ------------------                 ------------------------

           IN:                                      IN:
           ---                                      ---
             STORAGE     =   174833504.0000               STORAGE     =           0.6571
       CONSTANT HEAD     =           0.0000         CONSTANT HEAD     =           0.0000
     HEAD DEP BOUNDS     =    12036509.0000       HEAD DEP BOUNDS     =           0.2856
      STREAM LEAKAGE     =   532627552.0000        STREAM LEAKAGE     =          13.2526
        UZF RECHARGE     =    10929323.0000          UZF RECHARGE     =           0.2636
               GW ET     =           0.0000                 GW ET     =           0.0000
     SURFACE LEAKAGE     =           0.0000       SURFACE LEAKAGE     =           0.0000
           AWU WELLS     =           0.0000             AWU WELLS     =           0.0000

                TOTAL IN =   730426944.0000                  TOTAL IN =          14.4590

          OUT:                                     OUT:
          ----                                     ----
             STORAGE     =   166932528.0000               STORAGE     =           3.1761
       CONSTANT HEAD     =           0.0000         CONSTANT HEAD     =           0.0000
     HEAD DEP BOUNDS     =    12250150.0000       HEAD DEP BOUNDS     =           0.2972
      STREAM LEAKAGE     =   406923520.0000        STREAM LEAKAGE     =          10.4762
        UZF RECHARGE     =           0.0000          UZF RECHARGE     =           0.0000
               GW ET     =    56475876.0000                 GW ET     =           0.5096
     SURFACE LEAKAGE     =           0.0000       SURFACE LEAKAGE     =           0.0000
           AWU WELLS     =    87854424.0000             AWU WELLS     =           0.0000

               TOTAL OUT =   730436480.0000                 TOTAL OUT =          14.4590

                IN - OUT =       -9536.0000                  IN - OUT =      -4.8637E-05

     PERCENT DISCREPANCY =          -0.00         PERCENT DISCREPANCY =          -0.00






         TIME SUMMARY AT END OF TIME STEP   30 IN STRESS PERIOD   17
                    SECONDS     MINUTES      HOURS       DAYS        YEARS
                    -----------------------------------------------------------
   TIME STEP LENGTH  87600.      1460.0      24.333      1.0139     2.77588E-03
 STRESS PERIOD TIME 2.62800E+06  43800.      730.00      30.417     8.32763E-02
         TOTAL TIME 4.21344E+07 7.02240E+05  11704.      487.67      1.3352    
1
1
                            STRESS PERIOD NO.   18, LENGTH =   2628000.    
                            -----------------------------------------------

                              NUMBER OF TIME STEPS =    30

                               MULTIPLIER FOR DELT =     1.000

                            INITIAL TIME STEP SIZE =   87600.00    

 REUSING NON-PARAMETER GHB CELLS FROM LAST STRESS PERIOD

      2 GHB CELLS

 REUSING STREAM SEGMENT DATA FROM LAST STRESS PERIOD



            AREAL INFILTRATION RATE
 READING ON UNIT   19 WITH FORMAT: (10F4.0)            

            1           2           3           4           5           6           7           8           9          10
 ........................................................................................................................
   1   1.0000E-10  2.0000E-10   0.000       0.000       0.000       0.000       0.000       0.000       0.000       0.000    
   2   2.0000E-10  1.0000E-10  2.0000E-10   0.000       0.000      8.0000E-10  8.0000E-10  5.0000E-10   0.000       0.000    
   3    0.000      5.0000E-10  1.0000E-10  1.0000E-10  8.0000E-10  8.0000E-10  5.0000E-10  5.0000E-10   0.000       0.000    
   4   8.0000E-10  5.0000E-10  1.0000E-10  1.0000E-10  1.0000E-10  1.0000E-10  1.0000E-10  1.0000E-10  2.0000E-10   0.000    
   5   8.0000E-10  5.0000E-10  1.0000E-10  1.0000E-10  1.0000E-10  1.0000E-10  1.0000E-10  1.0000E-10  1.0000E-10  1.0000E-10
   6   8.0000E-10  5.0000E-10  5.0000E-10  2.0000E-10  2.0000E-10  1.0000E-10  1.0000E-10  1.0000E-10  1.0000E-10  5.0000E-10
   7   8.0000E-10  5.0000E-10  5.0000E-10  2.0000E-10  2.0000E-10  1.0000E-10  1.0000E-10  2.0000E-10  2.0000E-10   0.000    
   8    0.000      5.0000E-10  5.0000E-10  2.0000E-10  2.0000E-10  1.0000E-10  1.0000E-10  2.0000E-10  5.0000E-10   0.000    
   9    0.000      5.0000E-10  5.0000E-10  2.0000E-10  2.0000E-10  1.0000E-10  1.0000E-10  2.0000E-10  5.0000E-10   0.000    
  10    0.000      5.0000E-10  5.0000E-10  2.0000E-10  2.0000E-10  1.0000E-10  1.0000E-10  2.0000E-10  5.0000E-10  8.0000E-10
  11    0.000      1.0000E-10  1.0000E-10  1.0000E-10  1.0000E-10  1.0000E-10  1.0000E-10  2.0000E-10  5.0000E-10   0.000    
  12   1.0000E-10  1.0000E-10  1.0000E-10  1.0000E-10  1.0000E-10  1.0000E-10  1.0000E-10  1.0000E-10  2.0000E-10   0.000    
  13   1.0000E-10  1.0000E-10  2.0000E-10  2.0000E-10  2.0000E-10  2.0000E-10  2.0000E-10  1.0000E-10  1.0000E-10   0.000    
  14    0.000      2.0000E-10  5.0000E-10  5.0000E-10  5.0000E-10  5.0000E-10  5.0000E-10  2.0000E-10  1.0000E-10   0.000    
  15    0.000       0.000      8.0000E-10  8.0000E-10  8.0000E-10  8.0000E-10   0.000       0.000       0.000       0.000    

                  ET RATE =  1.000000E-08

 USING ET EXTINCTION DEPTH FROM PREVIOUS STRESS PERIOD. CURRENT PERIOD IS:      18

 USING EXTINCTION WATER CONTENT FROM PREVIOUS STRESS PERIOD. CURRENT PERIOD IS:      18

 PROCESSING AWU STRESS PERIOD DATA

 READING AWU STRESS PERIOD DATA

 READING IRRIGATION STREAM

 READING IRRIGATION WELL

 READING SUPPLEMENTAL WEL

 END PROCESSING AWU STRESS PERIOD DATA OPTIONS
 
 SOLVING FOR HEAD 
                                                   Max.-Head-Change                         Max.-Flux-Residual
  Residual-Control   Outer-Iter.   Inner-Iter.     Column Row Layer    Maximum-Head-Change  Column Row Layer    Maximum-Flux-Residual          L2-NORM 
          0                 1           2             4   13     1      -0.1265529640E-01       4   13    1        -0.7284522600E+00      0.1367997461E+01
          0                 2           2             4   13     1       0.7779101779E-02       4   13    1         0.4615464978E+00      0.8011520979E+00
          0                 3           2             4   13     1      -0.5222431381E-03       4   13    1        -0.3186421630E-01      0.5382553408E-01
          0                 4           1             4   13     1       0.2031730710E-04       4   13    1         0.1274450116E-02      0.2060856350E-02

    ------------------------------------------------
       NWT REQUIRED            4 OUTER ITERATIONS 
       AND A TOTAL OF          7 INNER ITERATIONS.
    ------------------------------------------------

 NO OUTPUT CONTROL FOR STRESS PERIOD   18   TIME STEP    1
 
 SOLVING FOR HEAD 
                                                   Max.-Head-Change                         Max.-Flux-Residual
  Residual-Control   Outer-Iter.   Inner-Iter.     Column Row Layer    Maximum-Head-Change  Column Row Layer    Maximum-Flux-Residual          L2-NORM 
          0                 1           2             4   13     1      -0.5333558152E-02       4   13    1        -0.3074488012E+00      0.7478044849E+00
          0                 2           2             4   13     1       0.5143820614E-03       4   13    1         0.3043846015E-01      0.6661396740E-01
          0                 3           1             4   13     1      -0.3451312090E-04       4   13    1        -0.2101022821E-02      0.4629879147E-02

    ------------------------------------------------
       NWT REQUIRED            3 OUTER ITERATIONS 
       AND A TOTAL OF          5 INNER ITERATIONS.
    ------------------------------------------------

 NO OUTPUT CONTROL FOR STRESS PERIOD   18   TIME STEP    2
 
 SOLVING FOR HEAD 
                                                   Max.-Head-Change                         Max.-Flux-Residual
  Residual-Control   Outer-Iter.   Inner-Iter.     Column Row Layer    Maximum-Head-Change  Column Row Layer    Maximum-Flux-Residual          L2-NORM 
          0                 1           2             4   13     1      -0.4814380469E-02       4   13    1        -0.2773674310E+00      0.7137800645E+00
          0                 2           2             4   13     1       0.4642645554E-03       4   13    1         0.2745799897E-01      0.6304366158E-01
          0                 3           1             4   13     1      -0.3115020849E-04       4   13    1        -0.1895322415E-02      0.4396661979E-02

    ------------------------------------------------
       NWT REQUIRED            3 OUTER ITERATIONS 
       AND A TOTAL OF          5 INNER ITERATIONS.
    ------------------------------------------------

 NO OUTPUT CONTROL FOR STRESS PERIOD   18   TIME STEP    3
 
 SOLVING FOR HEAD 
                                                   Max.-Head-Change                         Max.-Flux-Residual
  Residual-Control   Outer-Iter.   Inner-Iter.     Column Row Layer    Maximum-Head-Change  Column Row Layer    Maximum-Flux-Residual          L2-NORM 
          0                 1           2             4   13     1      -0.4417332401E-02       4   13    1        -0.2542466693E+00      0.6880002668E+00
          0                 2           2             4   13     1       0.4258525789E-03       4   13    1         0.2516276582E-01      0.6032658476E-01
          0                 3           1             4   13     1      -0.2855602317E-04       4   13    1        -0.1735875482E-02      0.4218456208E-02

    ------------------------------------------------
       NWT REQUIRED            3 OUTER ITERATIONS 
       AND A TOTAL OF          5 INNER ITERATIONS.
    ------------------------------------------------

 NO OUTPUT CONTROL FOR STRESS PERIOD   18   TIME STEP    4
 
 SOLVING FOR HEAD 
                                                   Max.-Head-Change                         Max.-Flux-Residual
  Residual-Control   Outer-Iter.   Inner-Iter.     Column Row Layer    Maximum-Head-Change  Column Row Layer    Maximum-Flux-Residual          L2-NORM 
          0                 1           2             4   13     1      -0.4054498357E-02       4   13    1        -0.2332156324E+00      0.6637821829E+00
          0                 2           2             4   13     1       0.3908106205E-03       4   13    1         0.2307853953E-01      0.5774921319E-01
          0                 3           1             4   13     1      -0.2618933909E-04       4   13    1        -0.1591086988E-02      0.4049580907E-02

    ------------------------------------------------
       NWT REQUIRED            3 OUTER ITERATIONS 
       AND A TOTAL OF          5 INNER ITERATIONS.
    ------------------------------------------------

 NO OUTPUT CONTROL FOR STRESS PERIOD   18   TIME STEP    5
 
 SOLVING FOR HEAD 
                                                   Max.-Head-Change                         Max.-Flux-Residual
  Residual-Control   Outer-Iter.   Inner-Iter.     Column Row Layer    Maximum-Head-Change  Column Row Layer    Maximum-Flux-Residual          L2-NORM 
          0                 1           2             4   13     1      -0.3694683390E-02       4   13    1        -0.2123926735E+00      0.6406747559E+00
          0                 2           2             4   13     1       0.3560657909E-03       4   13    1         0.2101482132E-01      0.5526572167E-01
          0                 3           1             1    2     1       0.2411325446E-04       4   13    1        -0.1448453944E-02      0.3887896851E-02

    ------------------------------------------------
       NWT REQUIRED            3 OUTER ITERATIONS 
       AND A TOTAL OF          5 INNER ITERATIONS.
    ------------------------------------------------

 NO OUTPUT CONTROL FOR STRESS PERIOD   18   TIME STEP    6
 
 SOLVING FOR HEAD 
                                                   Max.-Head-Change                         Max.-Flux-Residual
  Residual-Control   Outer-Iter.   Inner-Iter.     Column Row Layer    Maximum-Head-Change  Column Row Layer    Maximum-Flux-Residual          L2-NORM 
          0                 1           2             1    1     1       0.3631173688E-02       4   13    1        -0.1935739603E+00      0.6200945026E+00
          0                 2           2             4   13     1       0.3246543852E-03       4   13    1         0.1914979558E-01      0.5294856601E-01
          0                 3           1             1    2     1       0.2414799163E-04       4   13    1        -0.1319637467E-02      0.3735958135E-02

    ------------------------------------------------
       NWT REQUIRED            3 OUTER ITERATIONS 
       AND A TOTAL OF          5 INNER ITERATIONS.
    ------------------------------------------------

 NO OUTPUT CONTROL FOR STRESS PERIOD   18   TIME STEP    7
 
 SOLVING FOR HEAD 
                                                   Max.-Head-Change                         Max.-Flux-Residual
  Residual-Control   Outer-Iter.   Inner-Iter.     Column Row Layer    Maximum-Head-Change  Column Row Layer    Maximum-Flux-Residual          L2-NORM 
          0                 1           2             4    7     1      -0.4523859952E-01       5    8    1        -0.2391568756E+01      0.6143730699E+01
          0                 2           2             4    7     1       0.4400451453E-02       5    8    1         0.2391523865E+00      0.6124181784E+00
          0                 3           2             4    7     1      -0.2996547305E-03       5    8    1        -0.1674071675E-01      0.4275458710E-01
          0                 4           1             4    7     1       0.1192354061E-04       5    8    1         0.6846960655E-03      0.1745673201E-02

    ------------------------------------------------
       NWT REQUIRED            4 OUTER ITERATIONS 
       AND A TOTAL OF          7 INNER ITERATIONS.
    ------------------------------------------------

 NO OUTPUT CONTROL FOR STRESS PERIOD   18   TIME STEP    8
 
 SOLVING FOR HEAD 
                                                   Max.-Head-Change                         Max.-Flux-Residual
  Residual-Control   Outer-Iter.   Inner-Iter.     Column Row Layer    Maximum-Head-Change  Column Row Layer    Maximum-Flux-Residual          L2-NORM 
          0                 1           2             4   13     1      -0.2161948299E-01       4   13    1        -0.1236853004E+01      0.2290658664E+01
          0                 2           2             4   13     1       0.2184089746E-01       4   13    1         0.1295901626E+01      0.2283598115E+01
          0                 3           2             7   13     1      -0.3555162340E-02       7   13    1        -0.2029329759E+00      0.2485960218E+00
          0                 4           2             7   13     1      -0.2099189760E-03       7   13    1        -0.1199661908E-01      0.1316319043E-01
          0                 5           1             7   13     1       0.4971473613E-05       7   13    1         0.2925890999E-03      0.3018232459E-03

    ------------------------------------------------
       NWT REQUIRED            5 OUTER ITERATIONS 
       AND A TOTAL OF          9 INNER ITERATIONS.
    ------------------------------------------------

 NO OUTPUT CONTROL FOR STRESS PERIOD   18   TIME STEP    9
 
 SOLVING FOR HEAD 
                                                   Max.-Head-Change                         Max.-Flux-Residual
  Residual-Control   Outer-Iter.   Inner-Iter.     Column Row Layer    Maximum-Head-Change  Column Row Layer    Maximum-Flux-Residual          L2-NORM 
          0                 1           2             4   13     1      -0.2157109199E-01       4   13    1        -0.1234133245E+01      0.2276369270E+01
          0                 2           2             4   13     1       0.2188288671E-01       4   13    1         0.1298399384E+01      0.2271951322E+01
          0                 3           2             7   13     1      -0.3396599485E-02       7   13    1        -0.1938926373E+00      0.2414483370E+00
          0                 4           2             7   13     1      -0.2005158078E-03       7   13    1        -0.1146069767E-01      0.1268022158E-01
          0                 5           1             7   13     1      -0.1184065782E-04       7   13    1        -0.6760518481E-03      0.6796773755E-03

    ------------------------------------------------
       NWT REQUIRED            5 OUTER ITERATIONS 
       AND A TOTAL OF          9 INNER ITERATIONS.
    ------------------------------------------------

 NO OUTPUT CONTROL FOR STRESS PERIOD   18   TIME STEP   10
 
 SOLVING FOR HEAD 
                                                   Max.-Head-Change                         Max.-Flux-Residual
  Residual-Control   Outer-Iter.   Inner-Iter.     Column Row Layer    Maximum-Head-Change  Column Row Layer    Maximum-Flux-Residual          L2-NORM 
          0                 1           2             4   13     1      -0.2149164624E-01       4   13    1        -0.1229651501E+01      0.2263909062E+01
          0                 2           2             4   13     1       0.2188294202E-01       4   13    1         0.1298407996E+01      0.2271702832E+01
          0                 3           2             7   13     1      -0.3378479075E-02       7   13    1        -0.1928570524E+00      0.2406084607E+00
          0                 4           2             7   13     1      -0.1994477978E-03       7   13    1        -0.1139967367E-01      0.1262504240E-01
          0                 5           1             7   13     1      -0.1177624121E-04       7   13    1        -0.6723722593E-03      0.6759101240E-03

    ------------------------------------------------
       NWT REQUIRED            5 OUTER ITERATIONS 
       AND A TOTAL OF          9 INNER ITERATIONS.
    ------------------------------------------------

 NO OUTPUT CONTROL FOR STRESS PERIOD   18   TIME STEP   11
 
 SOLVING FOR HEAD 
                                                   Max.-Head-Change                         Max.-Flux-Residual
  Residual-Control   Outer-Iter.   Inner-Iter.     Column Row Layer    Maximum-Head-Change  Column Row Layer    Maximum-Flux-Residual          L2-NORM 
          0                 1           2             4   13     1      -0.2141917844E-01       4   13    1        -0.1225565647E+01      0.2252402131E+01
          0                 2           2             4   13     1       0.2188307521E-01       4   13    1         0.1298421028E+01      0.2271580559E+01
          0                 3           2             7   13     1      -0.3378580637E-02       7   13    1        -0.1928627034E+00      0.2406039978E+00
          0                 4           2             7   13     1      -0.1994514921E-03       7   13    1        -0.1139987056E-01      0.1262533532E-01
          0                 5           1             7   13     1      -0.1177954382E-04       7   13    1        -0.6725591993E-03      0.6763861108E-03

    ------------------------------------------------
       NWT REQUIRED            5 OUTER ITERATIONS 
       AND A TOTAL OF          9 INNER ITERATIONS.
    ------------------------------------------------

 NO OUTPUT CONTROL FOR STRESS PERIOD   18   TIME STEP   12
 
 SOLVING FOR HEAD 
                                                   Max.-Head-Change                         Max.-Flux-Residual
  Residual-Control   Outer-Iter.   Inner-Iter.     Column Row Layer    Maximum-Head-Change  Column Row Layer    Maximum-Flux-Residual          L2-NORM 
          0                 1           2             4   13     1      -0.2135295171E-01       4   13    1        -0.1221833530E+01      0.2241756190E+01
          0                 2           2             4   13     1       0.2188327693E-01       4   13    1         0.1298437941E+01      0.2271468135E+01
          0                 3           2             7   13     1      -0.3378659310E-02       7   13    1        -0.1928670513E+00      0.2405995910E+00
          0                 4           2             7   13     1      -0.1994574083E-03       7   13    1        -0.1140019456E-01      0.1262341235E-01
          0                 5           1             7   13     1      -0.1177847261E-04       7   13    1        -0.6724987647E-03      0.6759996225E-03

    ------------------------------------------------
       NWT REQUIRED            5 OUTER ITERATIONS 
       AND A TOTAL OF          9 INNER ITERATIONS.
    ------------------------------------------------

 NO OUTPUT CONTROL FOR STRESS PERIOD   18   TIME STEP   13
 
 SOLVING FOR HEAD 
                                                   Max.-Head-Change                         Max.-Flux-Residual
  Residual-Control   Outer-Iter.   Inner-Iter.     Column Row Layer    Maximum-Head-Change  Column Row Layer    Maximum-Flux-Residual          L2-NORM 
          0                 1           2             4   13     1      -0.2129250060E-01       4   13    1        -0.1218428818E+01      0.2231905471E+01
          0                 2           2             4   13     1       0.2188351343E-01       4   13    1         0.1298456686E+01      0.2271367646E+01
          0                 3           2             7   13     1      -0.3378734333E-02       7   13    1        -0.1928711955E+00      0.2405966715E+00
          0                 4           2             7   13     1      -0.1994613217E-03       7   13    1        -0.1140040604E-01      0.1262511211E-01
          0                 5           1             7   13     1      -0.1177980463E-04       7   13    1        -0.6725737333E-03      0.6762873024E-03

    ------------------------------------------------
       NWT REQUIRED            5 OUTER ITERATIONS 
       AND A TOTAL OF          9 INNER ITERATIONS.
    ------------------------------------------------

 NO OUTPUT CONTROL FOR STRESS PERIOD   18   TIME STEP   14
 
 SOLVING FOR HEAD 
                                                   Max.-Head-Change                         Max.-Flux-Residual
  Residual-Control   Outer-Iter.   Inner-Iter.     Column Row Layer    Maximum-Head-Change  Column Row Layer    Maximum-Flux-Residual          L2-NORM 
          0                 1           2             2   13     1      -0.3749852685E-02       4   13    1        -0.2128079488E+00      0.6713256906E+00
          0                 2           2             4   13     1       0.3220858197E-02       4   13    1         0.1910150661E+00      0.3384584357E+00
          0                 3           2             4   13     1      -0.2161458188E-03       4   13    1        -0.1318305706E-01      0.2277129647E-01
          0                 4           1             4   13     1       0.8403247594E-05       4   13    1         0.5268456271E-03      0.8817473894E-03

    ------------------------------------------------
       NWT REQUIRED            4 OUTER ITERATIONS 
       AND A TOTAL OF          7 INNER ITERATIONS.
    ------------------------------------------------

 NO OUTPUT CONTROL FOR STRESS PERIOD   18   TIME STEP   15
 
 SOLVING FOR HEAD 
                                                   Max.-Head-Change                         Max.-Flux-Residual
  Residual-Control   Outer-Iter.   Inner-Iter.     Column Row Layer    Maximum-Head-Change  Column Row Layer    Maximum-Flux-Residual          L2-NORM 
          0                 1           2             1    1     1       0.3603842423E-02       1    1    1         0.1871757916E+00      0.5346421430E+00
          0                 2           2             4    6     1      -0.2941615000E-03       4    6    1        -0.1596593234E-01      0.4375725027E-01
          0                 3           1             1    2     1       0.2445581755E-04       4    6    1         0.1117615673E-02      0.3162084987E-02

    ------------------------------------------------
       NWT REQUIRED            3 OUTER ITERATIONS 
       AND A TOTAL OF          5 INNER ITERATIONS.
    ------------------------------------------------

 NO OUTPUT CONTROL FOR STRESS PERIOD   18   TIME STEP   16
 
 SOLVING FOR HEAD 
                                                   Max.-Head-Change                         Max.-Flux-Residual
  Residual-Control   Outer-Iter.   Inner-Iter.     Column Row Layer    Maximum-Head-Change  Column Row Layer    Maximum-Flux-Residual          L2-NORM 
          0                 1           2             1    1     1       0.3600860053E-02       1    1    1         0.1870205599E+00      0.5283126056E+00
          0                 2           2             4    6     1      -0.2898367346E-03       4    6    1        -0.1572696006E-01      0.4301936929E-01
          0                 3           1             1    2     1       0.2448932843E-04       4    6    1         0.1100887594E-02      0.3112738762E-02

    ------------------------------------------------
       NWT REQUIRED            3 OUTER ITERATIONS 
       AND A TOTAL OF          5 INNER ITERATIONS.
    ------------------------------------------------

 NO OUTPUT CONTROL FOR STRESS PERIOD   18   TIME STEP   17
 
 SOLVING FOR HEAD 
                                                   Max.-Head-Change                         Max.-Flux-Residual
  Residual-Control   Outer-Iter.   Inner-Iter.     Column Row Layer    Maximum-Head-Change  Column Row Layer    Maximum-Flux-Residual          L2-NORM 
          0                 1           2             1    1     1       0.3597888107E-02       1    1    1         0.1868658726E+00      0.5225180515E+00
          0                 2           2             4    6     1      -0.2856344987E-03       4    6    1        -0.1549477063E-01      0.4224530610E-01
          0                 3           1             1    2     1       0.2452266148E-04       4    6    1         0.1084634319E-02      0.3061550125E-02

    ------------------------------------------------
       NWT REQUIRED            3 OUTER ITERATIONS 
       AND A TOTAL OF          5 INNER ITERATIONS.
    ------------------------------------------------

 NO OUTPUT CONTROL FOR STRESS PERIOD   18   TIME STEP   18
 
 SOLVING FOR HEAD 
                                                   Max.-Head-Change                         Max.-Flux-Residual
  Residual-Control   Outer-Iter.   Inner-Iter.     Column Row Layer    Maximum-Head-Change  Column Row Layer    Maximum-Flux-Residual          L2-NORM 
          0                 1           2             1    1     1       0.3594926558E-02       1    1    1         0.1867117258E+00      0.5170975476E+00
          0                 2           2             4    7     1      -0.2830651541E-03       4    6    1        -0.1527060395E-01      0.4160599778E-01
          0                 3           1             1    2     1       0.2455581495E-04       4    6    1         0.1068942665E-02      0.3018958767E-02

    ------------------------------------------------
       NWT REQUIRED            3 OUTER ITERATIONS 
       AND A TOTAL OF          5 INNER ITERATIONS.
    ------------------------------------------------

 NO OUTPUT CONTROL FOR STRESS PERIOD   18   TIME STEP   19
 
 SOLVING FOR HEAD 
                                                   Max.-Head-Change                         Max.-Flux-Residual
  Residual-Control   Outer-Iter.   Inner-Iter.     Column Row Layer    Maximum-Head-Change  Column Row Layer    Maximum-Flux-Residual          L2-NORM 
          0                 1           2             1    1     1       0.3591975364E-02       1    1    1         0.1865581185E+00      0.5120273008E+00
          0                 2           2             4    7     1      -0.2814656059E-03       4    7    1        -0.1513231276E-01      0.4100841609E-01
          0                 3           1             1    2     1       0.2458879109E-04       4    7    1         0.1059262267E-02      0.2978430888E-02

    ------------------------------------------------
       NWT REQUIRED            3 OUTER ITERATIONS 
       AND A TOTAL OF          5 INNER ITERATIONS.
    ------------------------------------------------

 NO OUTPUT CONTROL FOR STRESS PERIOD   18   TIME STEP   20
 
 SOLVING FOR HEAD 
                                                   Max.-Head-Change                         Max.-Flux-Residual
  Residual-Control   Outer-Iter.   Inner-Iter.     Column Row Layer    Maximum-Head-Change  Column Row Layer    Maximum-Flux-Residual          L2-NORM 
          0                 1           2             1    1     1       0.3589011112E-02       1    1    1         0.1864038350E+00      0.5072893417E+00
          0                 2           2             4    7     1      -0.2797688261E-03       4    7    1        -0.1504550345E-01      0.4044929582E-01
          0                 3           1             1    2     1       0.2462158990E-04       4    7    1         0.1053185606E-02      0.2941453195E-02

    ------------------------------------------------
       NWT REQUIRED            3 OUTER ITERATIONS 
       AND A TOTAL OF          5 INNER ITERATIONS.
    ------------------------------------------------

 NO OUTPUT CONTROL FOR STRESS PERIOD   18   TIME STEP   21
 
 SOLVING FOR HEAD 
                                                   Max.-Head-Change                         Max.-Flux-Residual
  Residual-Control   Outer-Iter.   Inner-Iter.     Column Row Layer    Maximum-Head-Change  Column Row Layer    Maximum-Flux-Residual          L2-NORM 
          0                 1           2             4   13     1      -0.2006985184E-01       4   13    1        -0.1149209065E+01      0.2088868800E+01
          0                 2           2             4   13     1       0.2093188873E-01       4   13    1         0.1242017341E+01      0.2172404564E+01
          0                 3           2             7   13     1      -0.3376188346E-02       7   13    1        -0.1927371152E+00      0.2365465407E+00
          0                 4           2             7   13     1      -0.1993083704E-03       7   13    1        -0.1139145948E-01      0.1250847633E-01
          0                 5           1             7   13     1      -0.1176958205E-04       7   13    1        -0.6720034560E-03      0.6753857147E-03

    ------------------------------------------------
       NWT REQUIRED            5 OUTER ITERATIONS 
       AND A TOTAL OF          9 INNER ITERATIONS.
    ------------------------------------------------

 NO OUTPUT CONTROL FOR STRESS PERIOD   18   TIME STEP   22
 
 SOLVING FOR HEAD 
                                                   Max.-Head-Change                         Max.-Flux-Residual
  Residual-Control   Outer-Iter.   Inner-Iter.     Column Row Layer    Maximum-Head-Change  Column Row Layer    Maximum-Flux-Residual          L2-NORM 
          0                 1           2             4   13     1      -0.2093340230E-01       4   13    1        -0.1198259465E+01      0.2169827421E+01
          0                 2           2             4   13     1       0.2188719126E-01       4   13    1         0.1298710152E+01      0.2270799975E+01
          0                 3           2             7   13     1      -0.3379211848E-02       7   13    1        -0.1928974084E+00      0.2405740388E+00
          0                 4           2             7   13     1      -0.1994939550E-03       7   13    1        -0.1140217193E-01      0.1262589110E-01
          0                 5           1             7   13     1      -0.1178090826E-04       7   13    1        -0.6726312899E-03      0.6763349486E-03

    ------------------------------------------------
       NWT REQUIRED            5 OUTER ITERATIONS 
       AND A TOTAL OF          9 INNER ITERATIONS.
    ------------------------------------------------

 NO OUTPUT CONTROL FOR STRESS PERIOD   18   TIME STEP   23
 
 SOLVING FOR HEAD 
                                                   Max.-Head-Change                         Max.-Flux-Residual
  Residual-Control   Outer-Iter.   Inner-Iter.     Column Row Layer    Maximum-Head-Change  Column Row Layer    Maximum-Flux-Residual          L2-NORM 
          0                 1           2             4   13     1      -0.2090562698E-01       4   13    1        -0.1196703049E+01      0.2164944419E+01
          0                 2           2             4   13     1       0.2188742898E-01       4   13    1         0.1298726953E+01      0.2270745471E+01
          0                 3           2             7   13     1      -0.3379190446E-02       7   13    1        -0.1928959918E+00      0.2405691892E+00
          0                 4           2             7   13     1      -0.1994926538E-03       7   13    1        -0.1140208066E-01      0.1262527648E-01
          0                 5           1             7   13     1      -0.1178013362E-04       7   13    1        -0.6725869832E-03      0.6762221752E-03

    ------------------------------------------------
       NWT REQUIRED            5 OUTER ITERATIONS 
       AND A TOTAL OF          9 INNER ITERATIONS.
    ------------------------------------------------

 NO OUTPUT CONTROL FOR STRESS PERIOD   18   TIME STEP   24
 
 SOLVING FOR HEAD 
                                                   Max.-Head-Change                         Max.-Flux-Residual
  Residual-Control   Outer-Iter.   Inner-Iter.     Column Row Layer    Maximum-Head-Change  Column Row Layer    Maximum-Flux-Residual          L2-NORM 
          0                 1           2             4   13     1      -0.2088012190E-01       4   13    1        -0.1195274937E+01      0.2160393172E+01
          0                 2           2             4   13     1       0.2188768785E-01       4   13    1         0.1298744920E+01      0.2270695307E+01
          0                 3           2             7   13     1      -0.3379162883E-02       7   13    1        -0.1928942136E+00      0.2405628866E+00
          0                 4           2             7   13     1      -0.1994913613E-03       7   13    1        -0.1140199130E-01      0.1262375999E-01
          0                 5           1             7   13     1      -0.1178068011E-04       7   13    1        -0.6726173483E-03      0.6762807875E-03

    ------------------------------------------------
       NWT REQUIRED            5 OUTER ITERATIONS 
       AND A TOTAL OF          9 INNER ITERATIONS.
    ------------------------------------------------

 NO OUTPUT CONTROL FOR STRESS PERIOD   18   TIME STEP   25
 
 SOLVING FOR HEAD 
                                                   Max.-Head-Change                         Max.-Flux-Residual
  Residual-Control   Outer-Iter.   Inner-Iter.     Column Row Layer    Maximum-Head-Change  Column Row Layer    Maximum-Flux-Residual          L2-NORM 
          0                 1           2             4   13     1      -0.2085668980E-01       4   13    1        -0.1193963973E+01      0.2156149706E+01
          0                 2           2             4   13     1       0.2188793346E-01       4   13    1         0.1298761951E+01      0.2270649125E+01
          0                 3           2             7   13     1      -0.3379130175E-02       7   13    1        -0.1928921589E+00      0.2405597299E+00
          0                 4           2             7   13     1      -0.1994898596E-03       7   13    1        -0.1140188989E-01      0.1262489257E-01
          0                 5           1             7   13     1      -0.1178051254E-04       7   13    1        -0.6726089673E-03      0.6762466141E-03

    ------------------------------------------------
       NWT REQUIRED            5 OUTER ITERATIONS 
       AND A TOTAL OF          9 INNER ITERATIONS.
    ------------------------------------------------

 NO OUTPUT CONTROL FOR STRESS PERIOD   18   TIME STEP   26
 
 SOLVING FOR HEAD 
                                                   Max.-Head-Change                         Max.-Flux-Residual
  Residual-Control   Outer-Iter.   Inner-Iter.     Column Row Layer    Maximum-Head-Change  Column Row Layer    Maximum-Flux-Residual          L2-NORM 
          0                 1           2             4   13     1      -0.2083506193E-01       4   13    1        -0.1192754755E+01      0.2152185804E+01
          0                 2           2             4   13     1       0.2188818364E-01       4   13    1         0.1298779167E+01      0.2270605171E+01
          0                 3           2             7   13     1      -0.3379106347E-02       7   13    1        -0.1928906174E+00      0.2405551046E+00
          0                 4           2             7   13     1      -0.1994883626E-03       7   13    1        -0.1140178946E-01      0.1262419642E-01
          0                 5           1             7   13     1      -0.1178021361E-04       7   13    1        -0.6725888447E-03      0.6763444562E-03

    ------------------------------------------------
       NWT REQUIRED            5 OUTER ITERATIONS 
       AND A TOTAL OF          9 INNER ITERATIONS.
    ------------------------------------------------

 NO OUTPUT CONTROL FOR STRESS PERIOD   18   TIME STEP   27
 
 SOLVING FOR HEAD 
                                                   Max.-Head-Change                         Max.-Flux-Residual
  Residual-Control   Outer-Iter.   Inner-Iter.     Column Row Layer    Maximum-Head-Change  Column Row Layer    Maximum-Flux-Residual          L2-NORM 
          0                 1           2             4   13     1      -0.1965158947E-01       4   13    1        -0.1125566059E+01      0.2036096895E+01
          0                 2           2             4   13     1       0.2064458498E-01       4   13    1         0.1224983622E+01      0.2142342583E+01
          0                 3           2             7   13     1      -0.3375188105E-02       7   13    1        -0.1926824461E+00      0.2353275685E+00
          0                 4           2             7   13     1      -0.1992489407E-03       7   13    1        -0.1138793832E-01      0.1247370362E-01
          0                 5           1             7   13     1      -0.1176637317E-04       7   13    1        -0.6718202542E-03      0.6751826433E-03

    ------------------------------------------------
       NWT REQUIRED            5 OUTER ITERATIONS 
       AND A TOTAL OF          9 INNER ITERATIONS.
    ------------------------------------------------

 NO OUTPUT CONTROL FOR STRESS PERIOD   18   TIME STEP   28
 
 SOLVING FOR HEAD 
                                                   Max.-Head-Change                         Max.-Flux-Residual
  Residual-Control   Outer-Iter.   Inner-Iter.     Column Row Layer    Maximum-Head-Change  Column Row Layer    Maximum-Flux-Residual          L2-NORM 
          0                 1           2             1    1     1       0.3565789671E-02       1    1    1         0.1851952076E+00      0.4785587932E+00
          0                 2           2             4    7     1      -0.2645187665E-03       4    7    1        -0.1424898666E-01      0.3688461502E-01
          0                 3           1             1    2     1       0.2487705232E-04       4    7    1         0.9974294173E-03      0.2700262590E-02

    ------------------------------------------------
       NWT REQUIRED            3 OUTER ITERATIONS 
       AND A TOTAL OF          5 INNER ITERATIONS.
    ------------------------------------------------

 NO OUTPUT CONTROL FOR STRESS PERIOD   18   TIME STEP   29
 
 SOLVING FOR HEAD 
                                                   Max.-Head-Change                         Max.-Flux-Residual
  Residual-Control   Outer-Iter.   Inner-Iter.     Column Row Layer    Maximum-Head-Change  Column Row Layer    Maximum-Flux-Residual          L2-NORM 
          0                 1           2             1    1     1       0.3562939460E-02       1    1    1         0.1850468631E+00      0.4758058235E+00
          0                 2           2             4    7     1      -0.2624599423E-03       4    7    1        -0.1414001098E-01      0.3649657527E-01
          0                 3           1             1    2     1       0.2490830794E-04       4    7    1         0.9898010917E-03      0.2673917734E-02

    ------------------------------------------------
       NWT REQUIRED            3 OUTER ITERATIONS 
       AND A TOTAL OF          5 INNER ITERATIONS.
    ------------------------------------------------

 NO OUTPUT CONTROL FOR STRESS PERIOD   18   TIME STEP   30



 STREAM LISTING     PERIOD     18   STEP       30

 LAYER ROW COL. STREAM  RCH.  FLOW INTO     FLOW TO   FLOW OUT OF   OVRLND.     DIRECT     STREAM       STREAM     STREAM     STREAM   STREAMBED  STREAMBED
                SEG.NO.  NO.  STRM. RCH.    AQUIFER    STRM. RCH.    RUNOFF     PRECIP       ET          HEAD       DEPTH      WIDTH   CONDCTNC.   GRADIENT

   1    1    1     1     1    6.3000E+01  3.8236E-01   6.2618E+01  0.000E+00  0.000E+00  0.000E+00  1.09461E+03  1.562E+00  1.863E+01  8.382E-02  1.521E+00
   1    2    2     1     2    6.2618E+01  5.9218E-01   6.2025E+01  0.000E+00  0.000E+00  0.000E+00  1.08961E+03  1.556E+00  1.857E+01  1.300E-01  1.519E+00
   1    3    3     1     3    6.2025E+01  5.0506E-01   6.1520E+01  0.000E+00  0.000E+00  0.000E+00  1.08397E+03  1.549E+00  1.850E+01  1.110E-01  1.516E+00
   1    3    4     1     4    6.1520E+01  4.6510E-01   6.1055E+01  0.000E+00  0.000E+00  0.000E+00  1.07895E+03  1.543E+00  1.845E+01  1.024E-01  1.514E+00
   1    4    5     2     1    5.9055E+01  3.9145E-01   5.8664E+01  0.000E+00  0.000E+00  0.000E+00  1.07395E+03  2.019E+00  1.200E+01  7.800E-02  1.673E+00
   1    5    6     2     2    5.8664E+01  3.0068E-01   5.8363E+01  0.000E+00  0.000E+00  0.000E+00  1.06852E+03  2.011E+00  1.200E+01  6.000E-02  1.670E+00
   1    6    6     2     3    5.8363E+01  3.0031E-01   5.8063E+01  0.000E+00  0.000E+00  0.000E+00  1.06380E+03  2.005E+00  1.200E+01  6.000E-02  1.668E+00
   1    7    6     2     4    5.8063E+01  2.9994E-01   5.7763E+01  0.000E+00  0.000E+00  0.000E+00  1.05907E+03  1.999E+00  1.200E+01  6.000E-02  1.666E+00
   1    8    6     2     5    5.7763E+01  2.9957E-01   5.7463E+01  0.000E+00  0.000E+00  0.000E+00  1.05435E+03  1.993E+00  1.200E+01  6.000E-02  1.664E+00
   1    3    5     3     1    2.0000E+00  2.8252E-01   1.7175E+00  0.000E+00  0.000E+00  0.000E+00  1.07555E+03  1.909E+00  9.636E+00  7.227E-02  1.955E+00
   1    3    6     3     2    1.7175E+00  2.4905E-01   1.4684E+00  0.000E+00  0.000E+00  0.000E+00  1.07264E+03  1.727E+00  8.909E+00  6.682E-02  1.864E+00
   1    3    7     3     3    1.4684E+00  1.9718E-01   1.2712E+00  0.000E+00  0.000E+00  0.000E+00  1.06987E+03  1.555E+00  8.218E+00  5.547E-02  1.777E+00
   1    4    8     3     4    1.2712E+00  2.2567E-01   1.0456E+00  0.000E+00  0.000E+00  0.000E+00  1.06682E+03  1.364E+00  7.455E+00  6.709E-02  1.682E+00
   1    5    8     3     5    1.0456E+00  1.5790E-01   8.8768E-01  0.000E+00  0.000E+00  0.000E+00  1.06362E+03  1.164E+00  6.655E+00  4.991E-02  1.582E+00
   1    6    8     3     6    8.8768E-01  5.5980E-02   8.3170E-01  0.000E+00  0.000E+00  0.000E+00  1.06158E+03  1.036E+00  6.145E+00  1.844E-02  1.518E+00
   1    5   10     4     1    1.0000E+01  9.0919E-02   9.9091E+00  0.000E+00  0.000E+00  0.000E+00  1.07836E+03  6.368E-01  1.000E+01  2.500E-02  1.212E+00
   1    5    9     4     2    9.9091E+00  1.8158E-01   9.7275E+00  0.000E+00  0.000E+00  0.000E+00  1.07154E+03  6.315E-01  1.000E+01  5.000E-02  1.211E+00
   1    6    8     4     3    9.7275E+00  1.2689E-01   9.6006E+00  0.000E+00  0.000E+00  0.000E+00  1.06381E+03  6.256E-01  1.000E+01  3.500E-02  1.209E+00
   1    6    8     5     1    1.0432E+01  2.2686E-01   1.0205E+01  0.000E+00  0.000E+00  0.000E+00  1.05868E+03  6.790E-01  1.542E+01  6.166E-02  1.226E+00
   1    7    7     5     2    1.0205E+01  2.7894E-01   9.9265E+00  0.000E+00  0.000E+00  0.000E+00  1.05417E+03  6.732E-01  1.519E+01  7.594E-02  1.224E+00
   1    8    7     5     3    9.9265E+00  1.9221E-01   9.7343E+00  0.000E+00  0.000E+00  0.000E+00  1.04992E+03  6.676E-01  1.497E+01  5.241E-02  1.223E+00
   1    8    6     5     4    9.7343E+00  1.3577E-01   9.5985E+00  0.000E+00  0.000E+00  0.000E+00  1.04691E+03  6.637E-01  1.482E+01  3.706E-02  1.221E+00
   1    9    6     6     1    6.7062E+01  3.1225E-01   6.6750E+01  0.000E+00  0.000E+00  0.000E+00  1.04493E+03  2.204E+00  1.200E+01  6.000E-02  1.735E+00
   1   10    7     6     2    6.6750E+01  3.1188E-01   6.6438E+01  0.000E+00  0.000E+00  0.000E+00  1.04038E+03  2.198E+00  1.200E+01  6.000E-02  1.733E+00
   1   11    7     6     3    6.6438E+01  3.1151E-01   6.6126E+01  0.000E+00  0.000E+00  0.000E+00  1.03583E+03  2.192E+00  1.200E+01  6.000E-02  1.731E+00
   1   12    7     6     4    6.6126E+01  3.1114E-01   6.5815E+01  0.000E+00  0.000E+00  0.000E+00  1.03128E+03  2.186E+00  1.200E+01  6.000E-02  1.729E+00
   1   13    7     6     5    6.5815E+01  2.2214E-02   6.5793E+01  0.000E+00  0.000E+00  0.000E+00  1.02809E+03  2.182E+00  1.200E+01  2.400E-02  3.085E-01
   1   14    9     7     1    1.5000E+02  1.3330E+00   1.4867E+02  0.000E+00  0.000E+00  0.000E+00  1.03987E+03  2.288E+00  5.529E+01  5.593E-01  7.945E-01
   1   13    8     7     2    1.4867E+02  1.8132E+00   1.4685E+02  0.000E+00  0.000E+00  0.000E+00  1.03478E+03  2.279E+00  5.526E+01  6.148E-01  9.831E-01
   1   13    7     7     3    1.4685E+02  1.4097E+00   1.4544E+02  0.000E+00  0.000E+00  0.000E+00  1.02969E+03  2.271E+00  5.522E+01  5.585E-01  8.414E-01
   1   13    6     8     1    2.1124E+02  1.0270E+00   2.1021E+02  0.000E+00  0.000E+00  0.000E+00  1.02507E+03  3.200E+00  4.640E+01  4.728E-01  7.240E-01
   1   13    5     8     2    2.1021E+02  2.3037E-01   2.0998E+02  0.000E+00  0.000E+00  0.000E+00  1.01882E+03  3.196E+00  4.634E+01  4.723E-01  1.626E-01
   1   13    4     8     3    2.0998E+02 -2.2759E+00   2.1226E+02  0.000E+00  0.000E+00  0.000E+00  1.01258E+03  3.202E+00  4.643E+01  4.731E+00 -1.603E-01
   1   13    3     8     4    2.1226E+02 -3.4875E+00   2.1574E+02  0.000E+00  0.000E+00  0.000E+00  1.00634E+03  3.218E+00  4.667E+01  4.755E+00 -2.445E-01
   1   13    2     8     5    2.1574E+02 -2.4461E+00   2.1819E+02  0.000E+00  0.000E+00  0.000E+00  1.00011E+03  3.235E+00  4.691E+01  4.780E+00 -1.706E-01
   1   13    1     8     6    2.1819E+02 -1.8176E+00   2.2001E+02  0.000E+00  0.000E+00  0.000E+00  9.95122E+02  3.247E+00  4.708E+01  2.879E+00 -2.105E-01
   1    8    6     9     1    0.0000E+00  0.0000E+00   0.0000E+00  0.000E+00  0.000E+00  0.000E+00  1.07875E+03  0.000E+00  4.000E+00  0.000E+00  1.000E+00
   1    8    5     9     2    0.0000E+00  0.0000E+00   0.0000E+00  0.000E+00  0.000E+00  0.000E+00  1.07825E+03  0.000E+00  4.000E+00  0.000E+00  1.000E+00





UNSATURATED ZONE PACKAGE VOLUMETRIC BUDGET FOR  TIME STEP    30 STRESS PERIOD   18
  ------------------------------------------------------------------------------



     CUMULATIVE VOLUMES      L**3       RATES FOR THIS TIME STEP      L**3/T
     ------------------                 ------------------------

           IN:                                      IN:
           ---                                      ---
        INFILTRATION =   202958141.8625          INFILTRATION =           0.8475

          OUT:                                     OUT:
          ----                                     ----
              UZF ET =   111400166.1339                UZF ET =           3.0738
        UZF RECHARGE =    11530250.1361          UZF RECHARGE =           0.2316

            IN - OUT =    80027725.5924              IN - OUT =          -2.4579

          STORAGE:                                 STORAGE:
          --------                                 --------
      STORAGE CHANGE =    80108624.7439        STORAGE CHANGE =          -2.4579

 PERCENT DISCREPANCY IS DIFFERENCE BETWEEN IN-OUT MINUS CHANGE IN STORAGE
 DIVIDED BY THE AVERAGE OF IN AND OUT TIMES 100

 PERCENT DISCREPANCY =          -0.01     PERCENT DISCREPANCY =           0.00






1
  VOLUMETRIC BUDGET FOR ENTIRE MODEL AT END OF TIME STEP   30, STRESS PERIOD  18
  ------------------------------------------------------------------------------

     CUMULATIVE VOLUMES      L**3       RATES FOR THIS TIME STEP      L**3/T
     ------------------                 ------------------------

           IN:                                      IN:
           ---                                      ---
               AWU WELLS =    89173232.0000                 AWU WELLS =           0.0000
      DIVERSION SEGMENTS =    75847824.0000        DIVERSION SEGMENTS =           0.0000
           GW IRRIGATION =           0.0000             GW IRRIGATION =           0.0000
           SW IRRIGATION =           0.0000             SW IRRIGATION =           0.0000
        SYSTEM LOSSES GW =           0.0000          SYSTEM LOSSES GW =           0.0000
        SYSTEM LOSSES SW =           0.0000          SYSTEM LOSSES SW =           0.0000

                TOTAL IN =   165021056.0000                  TOTAL IN =           0.0000

          OUT:                                     OUT:
          ----                                     ----
               AWU WELLS =           0.0000                 AWU WELLS =           0.0000
      DIVERSION SEGMENTS =           0.0000        DIVERSION SEGMENTS =           0.0000
           GW IRRIGATION =    89173232.0000             GW IRRIGATION =           0.0000
           SW IRRIGATION =    75849328.0000             SW IRRIGATION =           0.0000
        SYSTEM LOSSES GW =           0.0000          SYSTEM LOSSES GW =           0.0000
        SYSTEM LOSSES SW =           0.0000          SYSTEM LOSSES SW =           0.0000

               TOTAL OUT =   165022560.0000                 TOTAL OUT =           0.0000

                IN - OUT =       -1504.0000                  IN - OUT =           0.0000

     PERCENT DISCREPANCY =          -0.00         PERCENT DISCREPANCY =           0.00



1
  VOLUMETRIC BUDGET FOR ENTIRE MODEL AT END OF TIME STEP   30, STRESS PERIOD  18
  ------------------------------------------------------------------------------

     CUMULATIVE VOLUMES      L**3       RATES FOR THIS TIME STEP      L**3/T
     ------------------                 ------------------------

           IN:                                      IN:
           ---                                      ---
             STORAGE     =   178543728.0000               STORAGE     =           0.4902
       CONSTANT HEAD     =           0.0000         CONSTANT HEAD     =           0.0000
     HEAD DEP BOUNDS     =    12787005.0000       HEAD DEP BOUNDS     =           0.2856
      STREAM LEAKAGE     =   566764992.0000        STREAM LEAKAGE     =          13.0204
        UZF RECHARGE     =    11530245.0000          UZF RECHARGE     =           0.2316
               GW ET     =           0.0000                 GW ET     =           0.0000
     SURFACE LEAKAGE     =           0.0000       SURFACE LEAKAGE     =           0.0000
           AWU WELLS     =           0.0000             AWU WELLS     =           0.0000

                TOTAL IN =   769625984.0000                  TOTAL IN =          14.0277

          OUT:                                     OUT:
          ----                                     ----
             STORAGE     =   173998992.0000               STORAGE     =           2.6453
       CONSTANT HEAD     =           0.0000         CONSTANT HEAD     =           0.0000
     HEAD DEP BOUNDS     =    13026621.0000       HEAD DEP BOUNDS     =           0.2946
      STREAM LEAKAGE     =   434187264.0000        STREAM LEAKAGE     =          10.0271
        UZF RECHARGE     =           0.0000          UZF RECHARGE     =           0.0000
               GW ET     =    59249224.0000                 GW ET     =           1.0606
     SURFACE LEAKAGE     =           0.0000       SURFACE LEAKAGE     =           0.0000
           AWU WELLS     =    89173232.0000             AWU WELLS     =           0.0000

               TOTAL OUT =   769635328.0000                 TOTAL OUT =          14.0277

                IN - OUT =       -9344.0000                  IN - OUT =       2.5749E-05

     PERCENT DISCREPANCY =          -0.00         PERCENT DISCREPANCY =           0.00






         TIME SUMMARY AT END OF TIME STEP   30 IN STRESS PERIOD   18
                    SECONDS     MINUTES      HOURS       DAYS        YEARS
                    -----------------------------------------------------------
   TIME STEP LENGTH  87600.      1460.0      24.333      1.0139     2.77588E-03
 STRESS PERIOD TIME 2.62800E+06  43800.      730.00      30.417     8.32763E-02
         TOTAL TIME 4.47624E+07 7.46040E+05  12434.      518.08      1.4184    
1
1
                            STRESS PERIOD NO.   19, LENGTH =   2628000.    
                            -----------------------------------------------

                              NUMBER OF TIME STEPS =    30

                               MULTIPLIER FOR DELT =     1.000

                            INITIAL TIME STEP SIZE =   87600.00    

 REUSING NON-PARAMETER GHB CELLS FROM LAST STRESS PERIOD

      2 GHB CELLS

 REUSING STREAM SEGMENT DATA FROM LAST STRESS PERIOD



            AREAL INFILTRATION RATE
 READING ON UNIT   19 WITH FORMAT: (10F4.0)            

            1           2           3           4           5           6           7           8           9          10
 ........................................................................................................................
   1   1.0000E-10  2.0000E-10   0.000       0.000       0.000       0.000       0.000       0.000       0.000       0.000    
   2   2.0000E-10  1.0000E-10  2.0000E-10   0.000       0.000      8.0000E-10  8.0000E-10  5.0000E-10   0.000       0.000    
   3    0.000      5.0000E-10  1.0000E-10  1.0000E-10  8.0000E-10  8.0000E-10  5.0000E-10  5.0000E-10   0.000       0.000    
   4   8.0000E-10  5.0000E-10  1.0000E-10  1.0000E-10  1.0000E-10  1.0000E-10  1.0000E-10  1.0000E-10  2.0000E-10   0.000    
   5   8.0000E-10  5.0000E-10  1.0000E-10  1.0000E-10  1.0000E-10  1.0000E-10  1.0000E-10  1.0000E-10  1.0000E-10  1.0000E-10
   6   8.0000E-10  5.0000E-10  5.0000E-10  2.0000E-10  2.0000E-10  1.0000E-10  1.0000E-10  1.0000E-10  1.0000E-10  5.0000E-10
   7   8.0000E-10  5.0000E-10  5.0000E-10  2.0000E-10  2.0000E-10  1.0000E-10  1.0000E-10  2.0000E-10  2.0000E-10   0.000    
   8    0.000      5.0000E-10  5.0000E-10  2.0000E-10  2.0000E-10  1.0000E-10  1.0000E-10  2.0000E-10  5.0000E-10   0.000    
   9    0.000      5.0000E-10  5.0000E-10  2.0000E-10  2.0000E-10  1.0000E-10  1.0000E-10  2.0000E-10  5.0000E-10   0.000    
  10    0.000      5.0000E-10  5.0000E-10  2.0000E-10  2.0000E-10  1.0000E-10  1.0000E-10  2.0000E-10  5.0000E-10  8.0000E-10
  11    0.000      1.0000E-10  1.0000E-10  1.0000E-10  1.0000E-10  1.0000E-10  1.0000E-10  2.0000E-10  5.0000E-10   0.000    
  12   1.0000E-10  1.0000E-10  1.0000E-10  1.0000E-10  1.0000E-10  1.0000E-10  1.0000E-10  1.0000E-10  2.0000E-10   0.000    
  13   1.0000E-10  1.0000E-10  2.0000E-10  2.0000E-10  2.0000E-10  2.0000E-10  2.0000E-10  1.0000E-10  1.0000E-10   0.000    
  14    0.000      2.0000E-10  5.0000E-10  5.0000E-10  5.0000E-10  5.0000E-10  5.0000E-10  2.0000E-10  1.0000E-10   0.000    
  15    0.000       0.000      8.0000E-10  8.0000E-10  8.0000E-10  8.0000E-10   0.000       0.000       0.000       0.000    

                  ET RATE =  3.000000E-08

 USING ET EXTINCTION DEPTH FROM PREVIOUS STRESS PERIOD. CURRENT PERIOD IS:      19

 USING EXTINCTION WATER CONTENT FROM PREVIOUS STRESS PERIOD. CURRENT PERIOD IS:      19

 PROCESSING AWU STRESS PERIOD DATA

 READING AWU STRESS PERIOD DATA

 READING IRRIGATION STREAM

 READING IRRIGATION WELL

 READING SUPPLEMENTAL WEL

 END PROCESSING AWU STRESS PERIOD DATA OPTIONS
 
 SOLVING FOR HEAD 
                                                   Max.-Head-Change                         Max.-Flux-Residual
  Residual-Control   Outer-Iter.   Inner-Iter.     Column Row Layer    Maximum-Head-Change  Column Row Layer    Maximum-Flux-Residual          L2-NORM 
          0                 1           2             4   13     1      -0.9183407553E-02       4   13    1        -0.5258486040E+00      0.1142396930E+01
          0                 2           2             4   13     1       0.8826408655E-03       4   13    1         0.5196135712E-01      0.1082208038E+00
          0                 3           1             4   13     1      -0.5910991431E-04       4   13    1        -0.3577668528E-02      0.7408037611E-02

    ------------------------------------------------
       NWT REQUIRED            3 OUTER ITERATIONS 
       AND A TOTAL OF          5 INNER ITERATIONS.
    ------------------------------------------------

 OUTPUT CONTROL FOR STRESS PERIOD   19   TIME STEP    1
    PRINT BUDGET
    SAVE BUDGET
 UBDSV1 SAVING "         STORAGE" ON UNIT 102 AT TIME STEP  1, STRESS PERIOD  19
 UBDSV2 SAVING "   CONSTANT HEAD" ON UNIT 102 AT TIME STEP  1, STRESS PERIOD  19
 UBDSV1 SAVING "FLOW RIGHT FACE " ON UNIT 102 AT TIME STEP  1, STRESS PERIOD  19
 UBDSV1 SAVING "FLOW FRONT FACE " ON UNIT 102 AT TIME STEP  1, STRESS PERIOD  19

  HEAD DEP BOUNDS   PERIOD   19   STEP     1
 BOUNDARY      1   LAYER   1   ROW    13   COL     1   RATE   -0.294310    
 BOUNDARY      2   LAYER   1   ROW    14   COL     9   RATE    0.285569    



 STREAM LISTING     PERIOD     19   STEP        1

 LAYER ROW COL. STREAM  RCH.  FLOW INTO     FLOW TO   FLOW OUT OF   OVRLND.     DIRECT     STREAM       STREAM     STREAM     STREAM   STREAMBED  STREAMBED
                SEG.NO.  NO.  STRM. RCH.    AQUIFER    STRM. RCH.    RUNOFF     PRECIP       ET          HEAD       DEPTH      WIDTH   CONDCTNC.   GRADIENT

   1    1    1     1     1    6.0146E+01  3.7249E-01   5.9774E+01  0.000E+00  0.000E+00  0.000E+00  1.09457E+03  1.527E+00  1.828E+01  8.228E-02  1.509E+00
   1    2    2     1     2    5.9774E+01  5.7685E-01   5.9197E+01  0.000E+00  0.000E+00  0.000E+00  1.08958E+03  1.521E+00  1.823E+01  1.276E-01  1.507E+00
   1    3    3     1     3    5.9197E+01  4.9194E-01   5.8705E+01  0.000E+00  0.000E+00  0.000E+00  1.08393E+03  1.515E+00  1.816E+01  1.090E-01  1.505E+00
   1    3    4     1     4    5.8705E+01  4.5299E-01   5.8252E+01  0.000E+00  0.000E+00  0.000E+00  1.07892E+03  1.509E+00  1.810E+01  1.005E-01  1.503E+00
   1    4    5     2     1    5.6252E+01  3.8691E-01   5.5865E+01  0.000E+00  0.000E+00  0.000E+00  1.07389E+03  1.960E+00  1.200E+01  7.800E-02  1.653E+00
   1    5    6     2     2    5.5865E+01  2.9719E-01   5.5568E+01  0.000E+00  0.000E+00  0.000E+00  1.06846E+03  1.953E+00  1.200E+01  6.000E-02  1.651E+00
   1    6    6     2     3    5.5568E+01  2.9681E-01   5.5271E+01  0.000E+00  0.000E+00  0.000E+00  1.06374E+03  1.947E+00  1.200E+01  6.000E-02  1.649E+00
   1    7    6     2     4    5.5271E+01  2.9644E-01   5.4975E+01  0.000E+00  0.000E+00  0.000E+00  1.05902E+03  1.941E+00  1.200E+01  6.000E-02  1.647E+00
   1    8    6     2     5    5.4975E+01  2.9606E-01   5.4678E+01  0.000E+00  0.000E+00  0.000E+00  1.05429E+03  1.934E+00  1.200E+01  6.000E-02  1.645E+00
   1    3    5     3     1    2.0000E+00  2.8252E-01   1.7175E+00  0.000E+00  0.000E+00  0.000E+00  1.07555E+03  1.909E+00  9.636E+00  7.227E-02  1.955E+00
   1    3    6     3     2    1.7175E+00  2.4905E-01   1.4684E+00  0.000E+00  0.000E+00  0.000E+00  1.07264E+03  1.727E+00  8.909E+00  6.682E-02  1.864E+00
   1    3    7     3     3    1.4684E+00  1.9718E-01   1.2712E+00  0.000E+00  0.000E+00  0.000E+00  1.06987E+03  1.555E+00  8.218E+00  5.547E-02  1.777E+00
   1    4    8     3     4    1.2712E+00  2.2567E-01   1.0456E+00  0.000E+00  0.000E+00  0.000E+00  1.06682E+03  1.364E+00  7.455E+00  6.709E-02  1.682E+00
   1    5    8     3     5    1.0456E+00  1.5790E-01   8.8768E-01  0.000E+00  0.000E+00  0.000E+00  1.06362E+03  1.164E+00  6.655E+00  4.991E-02  1.582E+00
   1    6    8     3     6    8.8768E-01  5.5980E-02   8.3170E-01  0.000E+00  0.000E+00  0.000E+00  1.06158E+03  1.036E+00  6.145E+00  1.844E-02  1.518E+00
   1    5   10     4     1    1.0000E+01  9.0919E-02   9.9091E+00  0.000E+00  0.000E+00  0.000E+00  1.07836E+03  6.368E-01  1.000E+01  2.500E-02  1.212E+00
   1    5    9     4     2    9.9091E+00  1.8158E-01   9.7275E+00  0.000E+00  0.000E+00  0.000E+00  1.07154E+03  6.315E-01  1.000E+01  5.000E-02  1.211E+00
   1    6    8     4     3    9.7275E+00  1.2689E-01   9.6006E+00  0.000E+00  0.000E+00  0.000E+00  1.06381E+03  6.256E-01  1.000E+01  3.500E-02  1.209E+00
   1    6    8     5     1    1.0432E+01  2.2686E-01   1.0205E+01  0.000E+00  0.000E+00  0.000E+00  1.05868E+03  6.790E-01  1.542E+01  6.166E-02  1.226E+00
   1    7    7     5     2    1.0205E+01  2.7894E-01   9.9265E+00  0.000E+00  0.000E+00  0.000E+00  1.05417E+03  6.732E-01  1.519E+01  7.594E-02  1.224E+00
   1    8    7     5     3    9.9265E+00  1.9221E-01   9.7343E+00  0.000E+00  0.000E+00  0.000E+00  1.04992E+03  6.676E-01  1.497E+01  5.241E-02  1.223E+00
   1    8    6     5     4    9.7343E+00  1.3577E-01   9.5985E+00  0.000E+00  0.000E+00  0.000E+00  1.04691E+03  6.637E-01  1.482E+01  3.706E-02  1.221E+00
   1    9    6     6     1    6.4277E+01  3.0892E-01   6.3968E+01  0.000E+00  0.000E+00  0.000E+00  1.04488E+03  2.149E+00  1.200E+01  6.000E-02  1.716E+00
   1   10    7     6     2    6.3968E+01  3.0855E-01   6.3660E+01  0.000E+00  0.000E+00  0.000E+00  1.04032E+03  2.142E+00  1.200E+01  6.000E-02  1.714E+00
   1   11    7     6     3    6.3660E+01  3.0818E-01   6.3351E+01  0.000E+00  0.000E+00  0.000E+00  1.03577E+03  2.136E+00  1.200E+01  6.000E-02  1.712E+00
   1   12    7     6     4    6.3351E+01  3.0780E-01   6.3044E+01  0.000E+00  0.000E+00  0.000E+00  1.03122E+03  2.130E+00  1.200E+01  6.000E-02  1.710E+00
   1   13    7     6     5    6.3044E+01  2.0908E-02   6.3023E+01  0.000E+00  0.000E+00  0.000E+00  1.02804E+03  2.127E+00  1.200E+01  2.400E-02  2.904E-01
   1   14    9     7     1    1.5000E+02  1.3330E+00   1.4867E+02  0.000E+00  0.000E+00  0.000E+00  1.03987E+03  2.288E+00  5.529E+01  5.593E-01  7.945E-01
   1   13    8     7     2    1.4867E+02  1.8131E+00   1.4685E+02  0.000E+00  0.000E+00  0.000E+00  1.03478E+03  2.279E+00  5.526E+01  6.148E-01  9.831E-01
   1   13    7     7     3    1.4685E+02  1.4104E+00   1.4544E+02  0.000E+00  0.000E+00  0.000E+00  1.02969E+03  2.271E+00  5.522E+01  5.585E-01  8.418E-01
   1   13    6     8     1    2.0847E+02  1.0158E+00   2.0745E+02  0.000E+00  0.000E+00  0.000E+00  1.02506E+03  3.184E+00  4.617E+01  4.705E-01  7.197E-01
   1   13    5     8     2    2.0745E+02  2.2521E-01   2.0722E+02  0.000E+00  0.000E+00  0.000E+00  1.01881E+03  3.180E+00  4.612E+01  4.699E-01  1.597E-01
   1   13    4     8     3    2.0722E+02 -2.2992E+00   2.0952E+02  0.000E+00  0.000E+00  0.000E+00  1.01256E+03  3.186E+00  4.620E+01  4.708E+00 -1.628E-01
   1   13    3     8     4    2.0952E+02 -3.5045E+00   2.1303E+02  0.000E+00  0.000E+00  0.000E+00  1.00633E+03  3.203E+00  4.644E+01  4.733E+00 -2.468E-01
   1   13    2     8     5    2.1303E+02 -2.4843E+00   2.1551E+02  0.000E+00  0.000E+00  0.000E+00  1.00009E+03  3.220E+00  4.669E+01  4.758E+00 -1.741E-01
   1   13    1     8     6    2.1551E+02 -1.8281E+00   2.1734E+02  0.000E+00  0.000E+00  0.000E+00  9.95107E+02  3.232E+00  4.686E+01  2.865E+00 -2.127E-01
   1    8    6     9     1    0.0000E+00  0.0000E+00   0.0000E+00  0.000E+00  0.000E+00  0.000E+00  1.07875E+03  0.000E+00  4.000E+00  0.000E+00  1.000E+00
   1    8    5     9     2    0.0000E+00  0.0000E+00   0.0000E+00  0.000E+00  0.000E+00  0.000E+00  1.07825E+03  0.000E+00  4.000E+00  0.000E+00  1.000E+00



 UBDSV3 SAVING "           GW ET" ON UNIT  61 AT TIME STEP  1, STRESS PERIOD  19
 UBDSV3 SAVING "    UZF RECHARGE" ON UNIT  61 AT TIME STEP  1, STRESS PERIOD  19
 UBDSV3 SAVING " SURFACE LEAKAGE" ON UNIT  61 AT TIME STEP  1, STRESS PERIOD  19
 UBDSV3 SAVING "       HORT+DUNN" ON UNIT  61 AT TIME STEP  1, STRESS PERIOD  19
 UBDSV3 SAVING "  STORAGE CHANGE" ON UNIT  61 AT TIME STEP  1, STRESS PERIOD  19


UNSATURATED ZONE PACKAGE VOLUMETRIC BUDGET FOR  TIME STEP     1 STRESS PERIOD   19
  ------------------------------------------------------------------------------



     CUMULATIVE VOLUMES      L**3       RATES FOR THIS TIME STEP      L**3/T
     ------------------                 ------------------------

           IN:                                      IN:
           ---                                      ---
        INFILTRATION =   203032382.8625          INFILTRATION =           0.8475

          OUT:                                     OUT:
          ----                                     ----
              UZF ET =   112165321.3784                UZF ET =           8.7346
        UZF RECHARGE =    11549627.5189          UZF RECHARGE =           0.2212

            IN - OUT =    79317433.9652              IN - OUT =          -8.1084

          STORAGE:                                 STORAGE:
          --------                                 --------
      STORAGE CHANGE =    79398333.1020        STORAGE CHANGE =          -8.1084

 PERCENT DISCREPANCY IS DIFFERENCE BETWEEN IN-OUT MINUS CHANGE IN STORAGE
 DIVIDED BY THE AVERAGE OF IN AND OUT TIMES 100

 PERCENT DISCREPANCY =          -0.01     PERCENT DISCREPANCY =           0.00






 

            AWU WELLS     PERIOD   19   STEP   1
 AWU WELL      1   LAYER   1   ROW     6   COL     4   RATE     0.00000    
 AWU WELL      2   LAYER   1   ROW     6   COL     5   RATE     0.00000    
 AWU WELL      3   LAYER   1   ROW     7   COL     4   RATE     0.00000    
 AWU WELL      4   LAYER   1   ROW     7   COL     5   RATE     0.00000    
 AWU WELL      5   LAYER   1   ROW     8   COL     4   RATE     0.00000    
 AWU WELL      6   LAYER   1   ROW     8   COL     5   RATE     0.00000    
 
 

   DIVERSION SEGMENTS     PERIOD   19   STEP   1
 SEGMENT      9   RATE     0.00000    
 
 

        SW IRRIGATION     PERIOD   19   STEP   1
 SEGMENT      9   ROW     6   COL     4   RATE     0.00000    
 SEGMENT      9   ROW     6   COL     5   RATE     0.00000    
 SEGMENT      9   ROW     7   COL     4   RATE     0.00000    
 SEGMENT      9   ROW     7   COL     5   RATE     0.00000    
 SEGMENT      9   ROW     8   COL     4   RATE     0.00000    
 SEGMENT      9   ROW     8   COL     5   RATE     0.00000    
 
 

        GW IRRIGATION     PERIOD   19   STEP   1
 AWU WELL      1   ROW     6   COL     4   RATE     0.00000    
 AWU WELL      2   ROW     6   COL     5   RATE     0.00000    
 AWU WELL      3   ROW     7   COL     4   RATE     0.00000    
 AWU WELL      4   ROW     7   COL     5   RATE     0.00000    
 AWU WELL      5   ROW     8   COL     4   RATE     0.00000    
 AWU WELL      6   ROW     8   COL     5   RATE     0.00000    
 
1
  VOLUMETRIC BUDGET FOR ENTIRE MODEL AT END OF TIME STEP    1, STRESS PERIOD  19
  ------------------------------------------------------------------------------

     CUMULATIVE VOLUMES      L**3       RATES FOR THIS TIME STEP      L**3/T
     ------------------                 ------------------------

           IN:                                      IN:
           ---                                      ---
               AWU WELLS =    89173232.0000                 AWU WELLS =           0.0000
      DIVERSION SEGMENTS =    75847824.0000        DIVERSION SEGMENTS =           0.0000
           GW IRRIGATION =           0.0000             GW IRRIGATION =           0.0000
           SW IRRIGATION =           0.0000             SW IRRIGATION =           0.0000
        SYSTEM LOSSES GW =           0.0000          SYSTEM LOSSES GW =           0.0000
        SYSTEM LOSSES SW =           0.0000          SYSTEM LOSSES SW =           0.0000

                TOTAL IN =   165021056.0000                  TOTAL IN =           0.0000

          OUT:                                     OUT:
          ----                                     ----
               AWU WELLS =           0.0000                 AWU WELLS =           0.0000
      DIVERSION SEGMENTS =           0.0000        DIVERSION SEGMENTS =           0.0000
           GW IRRIGATION =    89173232.0000             GW IRRIGATION =           0.0000
           SW IRRIGATION =    75849328.0000             SW IRRIGATION =           0.0000
        SYSTEM LOSSES GW =           0.0000          SYSTEM LOSSES GW =           0.0000
        SYSTEM LOSSES SW =           0.0000          SYSTEM LOSSES SW =           0.0000

               TOTAL OUT =   165022560.0000                 TOTAL OUT =           0.0000

                IN - OUT =       -1504.0000                  IN - OUT =           0.0000

     PERCENT DISCREPANCY =          -0.00         PERCENT DISCREPANCY =           0.00



1
  VOLUMETRIC BUDGET FOR ENTIRE MODEL AT END OF TIME STEP    1, STRESS PERIOD  19
  ------------------------------------------------------------------------------

     CUMULATIVE VOLUMES      L**3       RATES FOR THIS TIME STEP      L**3/T
     ------------------                 ------------------------

           IN:                                      IN:
           ---                                      ---
             STORAGE     =   178780144.0000               STORAGE     =           2.6989
       CONSTANT HEAD     =           0.0000         CONSTANT HEAD     =           0.0000
     HEAD DEP BOUNDS     =    12812021.0000       HEAD DEP BOUNDS     =           0.2856
      STREAM LEAKAGE     =   567896896.0000        STREAM LEAKAGE     =          12.9211
        UZF RECHARGE     =    11549622.0000          UZF RECHARGE     =           0.2212
               GW ET     =           0.0000                 GW ET     =           0.0000
     SURFACE LEAKAGE     =           0.0000       SURFACE LEAKAGE     =           0.0000
           AWU WELLS     =           0.0000             AWU WELLS     =           0.0000

                TOTAL IN =   771038656.0000                  TOTAL IN =          16.1267

          OUT:                                     OUT:
          ----                                     ----
             STORAGE     =   174221376.0000               STORAGE     =           2.5386
       CONSTANT HEAD     =           0.0000         CONSTANT HEAD     =           0.0000
     HEAD DEP BOUNDS     =    13052403.0000       HEAD DEP BOUNDS     =           0.2943
      STREAM LEAKAGE     =   435073440.0000        STREAM LEAKAGE     =          10.1162
        UZF RECHARGE     =           0.0000          UZF RECHARGE     =           0.0000
               GW ET     =    59527532.0000                 GW ET     =           3.1771
     SURFACE LEAKAGE     =           0.0000       SURFACE LEAKAGE     =           0.0000
           AWU WELLS     =    89173232.0000             AWU WELLS     =           0.0000

               TOTAL OUT =   771048000.0000                 TOTAL OUT =          16.1261

                IN - OUT =       -9344.0000                  IN - OUT =       6.4087E-04

     PERCENT DISCREPANCY =          -0.00         PERCENT DISCREPANCY =           0.00






         TIME SUMMARY AT END OF TIME STEP    1 IN STRESS PERIOD   19
                    SECONDS     MINUTES      HOURS       DAYS        YEARS
                    -----------------------------------------------------------
   TIME STEP LENGTH  87600.      1460.0      24.333      1.0139     2.77588E-03
 STRESS PERIOD TIME  87600.      1460.0      24.333      1.0139     2.77588E-03
         TOTAL TIME 4.48500E+07 7.47500E+05  12458.      519.10      1.4212    
1
 
 SOLVING FOR HEAD 
                                                   Max.-Head-Change                         Max.-Flux-Residual
  Residual-Control   Outer-Iter.   Inner-Iter.     Column Row Layer    Maximum-Head-Change  Column Row Layer    Maximum-Flux-Residual          L2-NORM 
          0                 1           2             4   13     1      -0.9170149734E-02       4   13    1        -0.5249837676E+00      0.1140063157E+01
          0                 2           2             4   13     1       0.8812348131E-03       4   13    1         0.5187696704E-01      0.1083904303E+00
          0                 3           1             4   13     1      -0.5901565338E-04       4   13    1        -0.3571740587E-02      0.7414589958E-02

    ------------------------------------------------
       NWT REQUIRED            3 OUTER ITERATIONS 
       AND A TOTAL OF          5 INNER ITERATIONS.
    ------------------------------------------------

 NO OUTPUT CONTROL FOR STRESS PERIOD   19   TIME STEP    2
 
 SOLVING FOR HEAD 
                                                   Max.-Head-Change                         Max.-Flux-Residual
  Residual-Control   Outer-Iter.   Inner-Iter.     Column Row Layer    Maximum-Head-Change  Column Row Layer    Maximum-Flux-Residual          L2-NORM 
          0                 1           2             1   13     1      -0.8656404133E-02       4   13    1        -0.4777245687E+00      0.1075410776E+01
          0                 2           2             1   13     1       0.8153754438E-03       4   13    1         0.4719603415E-01      0.1019189523E+00
          0                 3           1             4   13     1      -0.5370359315E-04       4   13    1        -0.3247989484E-02      0.6981754006E-02

    ------------------------------------------------
       NWT REQUIRED            3 OUTER ITERATIONS 
       AND A TOTAL OF          5 INNER ITERATIONS.
    ------------------------------------------------

 NO OUTPUT CONTROL FOR STRESS PERIOD   19   TIME STEP    3
 
 SOLVING FOR HEAD 
                                                   Max.-Head-Change                         Max.-Flux-Residual
  Residual-Control   Outer-Iter.   Inner-Iter.     Column Row Layer    Maximum-Head-Change  Column Row Layer    Maximum-Flux-Residual          L2-NORM 
          0                 1           2             1   13     1      -0.8212079125E-02       1   13    1        -0.4506741712E+00      0.1016930169E+01
          0                 2           2             1   13     1       0.7741396754E-03       1   13    1         0.4367913463E-01      0.9604074104E-01
          0                 3           1             1   13     1      -0.5044951968E-04       4   13    1        -0.2957581504E-02      0.6590480504E-02

    ------------------------------------------------
       NWT REQUIRED            3 OUTER ITERATIONS 
       AND A TOTAL OF          5 INNER ITERATIONS.
    ------------------------------------------------

 NO OUTPUT CONTROL FOR STRESS PERIOD   19   TIME STEP    4
 
 SOLVING FOR HEAD 
                                                   Max.-Head-Change                         Max.-Flux-Residual
  Residual-Control   Outer-Iter.   Inner-Iter.     Column Row Layer    Maximum-Head-Change  Column Row Layer    Maximum-Flux-Residual          L2-NORM 
          0                 1           2             4    7     1      -0.1886784342E+00       5    8    1        -0.9894382570E+01      0.2423141135E+02
          0                 2           2             4    7     1       0.1829820666E-01       5    8    1         0.9893620095E+00      0.2418845837E+01
          0                 3           2             4    7     1      -0.1246042048E-02       5    8    1        -0.6925609197E-01      0.1693097359E+00
          0                 4           1             4    7     1       0.4958116944E-04       5    8    1         0.2832574760E-02      0.6924907888E-02

    ------------------------------------------------
       NWT REQUIRED            4 OUTER ITERATIONS 
       AND A TOTAL OF          7 INNER ITERATIONS.
    ------------------------------------------------

 NO OUTPUT CONTROL FOR STRESS PERIOD   19   TIME STEP    5
 
 SOLVING FOR HEAD 
                                                   Max.-Head-Change                         Max.-Flux-Residual
  Residual-Control   Outer-Iter.   Inner-Iter.     Column Row Layer    Maximum-Head-Change  Column Row Layer    Maximum-Flux-Residual          L2-NORM 
          0                 1           2             4   13     1      -0.2587540203E-01       4   13    1        -0.1479044114E+01      0.2807109521E+01
          0                 2           2             4   13     1       0.2172171535E-01       4   13    1         0.1289686053E+01      0.2253850743E+01
          0                 3           2             7   13     1      -0.3407650018E-02       7   13    1        -0.1948344898E+00      0.2418617170E+00
          0                 4           2             7   13     1       0.1354235749E-03       7   13    1         0.7965007440E-02      0.9623052356E-02
          0                 5           1             7   13     1      -0.1675453394E-05       7   13    1        -0.1009926727E-03      0.1198464103E-03

    ------------------------------------------------
       NWT REQUIRED            5 OUTER ITERATIONS 
       AND A TOTAL OF          9 INNER ITERATIONS.
    ------------------------------------------------

 NO OUTPUT CONTROL FOR STRESS PERIOD   19   TIME STEP    6
 
 SOLVING FOR HEAD 
                                                   Max.-Head-Change                         Max.-Flux-Residual
  Residual-Control   Outer-Iter.   Inner-Iter.     Column Row Layer    Maximum-Head-Change  Column Row Layer    Maximum-Flux-Residual          L2-NORM 
          0                 1           2             4   13     1      -0.2541329904E-01       4   13    1        -0.1452628243E+01      0.2756240841E+01
          0                 2           2             4   13     1       0.2171664149E-01       4   13    1         0.1289380531E+01      0.2253129929E+01
          0                 3           2             7   13     1      -0.3411956767E-02       7   13    1        -0.1950811528E+00      0.2420131719E+00
          0                 4           2             7   13     1       0.1356007802E-03       7   13    1         0.7975509435E-02      0.9630291304E-02
          0                 5           1             7   13     1      -0.1683158222E-05       7   13    1        -0.1014569759E-03      0.1210440610E-03

    ------------------------------------------------
       NWT REQUIRED            5 OUTER ITERATIONS 
       AND A TOTAL OF          9 INNER ITERATIONS.
    ------------------------------------------------

 NO OUTPUT CONTROL FOR STRESS PERIOD   19   TIME STEP    7
 
 SOLVING FOR HEAD 
                                                   Max.-Head-Change                         Max.-Flux-Residual
  Residual-Control   Outer-Iter.   Inner-Iter.     Column Row Layer    Maximum-Head-Change  Column Row Layer    Maximum-Flux-Residual          L2-NORM 
          0                 1           2             4   13     1      -0.2499125591E-01       4   13    1        -0.1428527708E+01      0.2709131590E+01
          0                 2           2             4   13     1       0.2171197099E-01       4   13    1         0.1289112604E+01      0.2252461503E+01
          0                 3           2             7   13     1      -0.3416188279E-02       7   13    1        -0.1953233300E+00      0.2421644959E+00
          0                 4           2             7   13     1       0.1357597850E-03       7   13    1         0.7984930589E-02      0.9635382312E-02
          0                 5           1             7   13     1      -0.1679331124E-05       7   13    1        -0.1012232626E-03      0.1203730042E-03

    ------------------------------------------------
       NWT REQUIRED            5 OUTER ITERATIONS 
       AND A TOTAL OF          9 INNER ITERATIONS.
    ------------------------------------------------

 NO OUTPUT CONTROL FOR STRESS PERIOD   19   TIME STEP    8
 
 SOLVING FOR HEAD 
                                                   Max.-Head-Change                         Max.-Flux-Residual
  Residual-Control   Outer-Iter.   Inner-Iter.     Column Row Layer    Maximum-Head-Change  Column Row Layer    Maximum-Flux-Residual          L2-NORM 
          0                 1           2             4   13     1      -0.2459803380E-01       4   13    1        -0.1406086415E+01      0.2664940846E+01
          0                 2           2             4   13     1       0.2170709744E-01       4   13    1         0.1288828436E+01      0.2251752215E+01
          0                 3           2             7   13     1      -0.3420342615E-02       7   13    1        -0.1955606009E+00      0.2423259329E+00
          0                 4           2             7   13     1       0.1359259118E-03       7   13    1         0.7994749656E-02      0.9642922254E-02
          0                 5           1             7   13     1      -0.1681751764E-05       7   13    1        -0.1013668998E-03      0.1202421416E-03

    ------------------------------------------------
       NWT REQUIRED            5 OUTER ITERATIONS 
       AND A TOTAL OF          9 INNER ITERATIONS.
    ------------------------------------------------

 NO OUTPUT CONTROL FOR STRESS PERIOD   19   TIME STEP    9
 
 SOLVING FOR HEAD 
                                                   Max.-Head-Change                         Max.-Flux-Residual
  Residual-Control   Outer-Iter.   Inner-Iter.     Column Row Layer    Maximum-Head-Change  Column Row Layer    Maximum-Flux-Residual          L2-NORM 
          0                 1           2             4   13     1      -0.2424232216E-01       4   13    1        -0.1385797769E+01      0.2624223535E+01
          0                 2           2             4   13     1       0.2170289600E-01       4   13    1         0.1288595064E+01      0.2251077233E+01
          0                 3           2             7   13     1      -0.3424418718E-02       7   13    1        -0.1957934311E+00      0.2424570345E+00
          0                 4           2             7   13     1       0.1360862968E-03       7   13    1         0.8004230333E-02      0.9648314911E-02
          0                 5           1             7   13     1      -0.1684323849E-05       7   13    1        -0.1015190294E-03      0.1205850437E-03

    ------------------------------------------------
       NWT REQUIRED            5 OUTER ITERATIONS 
       AND A TOTAL OF          9 INNER ITERATIONS.
    ------------------------------------------------

 NO OUTPUT CONTROL FOR STRESS PERIOD   19   TIME STEP   10
 
 SOLVING FOR HEAD 
                                                   Max.-Head-Change                         Max.-Flux-Residual
  Residual-Control   Outer-Iter.   Inner-Iter.     Column Row Layer    Maximum-Head-Change  Column Row Layer    Maximum-Flux-Residual          L2-NORM 
          0                 1           2             4   13     1      -0.2392110291E-01       4   13    1        -0.1367470253E+01      0.2586783449E+01
          0                 2           2             4   13     1       0.2169981949E-01       4   13    1         0.1288408339E+01      0.2250621355E+01
          0                 3           2             7   13     1      -0.3428421483E-02       7   13    1        -0.1960220580E+00      0.2426082414E+00
          0                 4           2             7   13     1       0.1362448643E-03       7   13    1         0.8013605325E-02      0.9654440626E-02
          0                 5           1             7   13     1      -0.1685971363E-05       7   13    1        -0.1016175490E-03      0.1207905194E-03

    ------------------------------------------------
       NWT REQUIRED            5 OUTER ITERATIONS 
       AND A TOTAL OF          9 INNER ITERATIONS.
    ------------------------------------------------

 NO OUTPUT CONTROL FOR STRESS PERIOD   19   TIME STEP   11
 
 SOLVING FOR HEAD 
                                                   Max.-Head-Change                         Max.-Flux-Residual
  Residual-Control   Outer-Iter.   Inner-Iter.     Column Row Layer    Maximum-Head-Change  Column Row Layer    Maximum-Flux-Residual          L2-NORM 
          0                 1           2             4    7     1      -0.1874977583E+00       4    7    1        -0.9799658486E+01      0.2393949703E+02
          0                 2           2             4    7     1       0.1823742523E-01       4    7    1         0.9799519125E+00      0.2392118044E+01
          0                 3           2             4    7     1      -0.1241903270E-02       4    7    1        -0.6859679730E-01      0.1674267126E+00
          0                 4           1             4    7     1       0.4941648240E-04       4    7    1         0.2805612285E-02      0.6848393966E-02

    ------------------------------------------------
       NWT REQUIRED            4 OUTER ITERATIONS 
       AND A TOTAL OF          7 INNER ITERATIONS.
    ------------------------------------------------

 NO OUTPUT CONTROL FOR STRESS PERIOD   19   TIME STEP   12
 
 SOLVING FOR HEAD 
                                                   Max.-Head-Change                         Max.-Flux-Residual
  Residual-Control   Outer-Iter.   Inner-Iter.     Column Row Layer    Maximum-Head-Change  Column Row Layer    Maximum-Flux-Residual          L2-NORM 
          0                 1           2             5    8     1       0.1065584790E-01       5    8    1         0.5817132747E+00      0.1349108560E+01
          0                 2           2             7   13     1      -0.3469928858E-02       7   13    1        -0.1933476167E+00      0.2347798206E+00
          0                 3           2             7   13     1       0.2362025153E-03       7   13    1         0.1353033434E-01      0.1644744053E-01
          0                 4           1             7   13     1      -0.9395281634E-05       7   13    1        -0.5531903000E-03      0.6809990202E-03

    ------------------------------------------------
       NWT REQUIRED            4 OUTER ITERATIONS 
       AND A TOTAL OF          7 INNER ITERATIONS.
    ------------------------------------------------

 NO OUTPUT CONTROL FOR STRESS PERIOD   19   TIME STEP   13
 
 SOLVING FOR HEAD 
                                                   Max.-Head-Change                         Max.-Flux-Residual
  Residual-Control   Outer-Iter.   Inner-Iter.     Column Row Layer    Maximum-Head-Change  Column Row Layer    Maximum-Flux-Residual          L2-NORM 
          0                 1           2             5    8     1       0.1016194994E-01       5    8    1         0.5541696493E+00      0.1292268383E+01
          0                 2           2             5    8     1      -0.9884849524E-03       5    8    1        -0.5541727487E-01      0.1263170783E+00
          0                 3           1             5    8     1       0.6731211883E-04       5    8    1         0.3879207991E-02      0.8886280318E-02

    ------------------------------------------------
       NWT REQUIRED            3 OUTER ITERATIONS 
       AND A TOTAL OF          5 INNER ITERATIONS.
    ------------------------------------------------

 NO OUTPUT CONTROL FOR STRESS PERIOD   19   TIME STEP   14
 
 SOLVING FOR HEAD 
                                                   Max.-Head-Change                         Max.-Flux-Residual
  Residual-Control   Outer-Iter.   Inner-Iter.     Column Row Layer    Maximum-Head-Change  Column Row Layer    Maximum-Flux-Residual          L2-NORM 
          0                 1           2             5    8     1       0.9701074546E-02       5    8    1         0.5284866399E+00      0.1244843247E+01
          0                 2           2             5    8     1      -0.9436538928E-03       5    8    1        -0.5284894163E-01      0.1214934043E+00
          0                 3           1             5    8     1       0.6425929396E-04       5    8    1         0.3699424894E-02      0.8526460940E-02

    ------------------------------------------------
       NWT REQUIRED            3 OUTER ITERATIONS 
       AND A TOTAL OF          5 INNER ITERATIONS.
    ------------------------------------------------

 NO OUTPUT CONTROL FOR STRESS PERIOD   19   TIME STEP   15
 
 SOLVING FOR HEAD 
                                                   Max.-Head-Change                         Max.-Flux-Residual
  Residual-Control   Outer-Iter.   Inner-Iter.     Column Row Layer    Maximum-Head-Change  Column Row Layer    Maximum-Flux-Residual          L2-NORM 
          0                 1           2             5    6     1       0.9281354185E-02       5    8    1         0.5045095930E+00      0.1200670297E+01
          0                 2           2             5    6     1      -0.9028156104E-03       5    8    1        -0.5045120833E-01      0.1169926514E+00
          0                 3           1             5    6     1       0.6147837592E-04       5    8    1         0.3531583751E-02      0.8213561045E-02

    ------------------------------------------------
       NWT REQUIRED            3 OUTER ITERATIONS 
       AND A TOTAL OF          5 INNER ITERATIONS.
    ------------------------------------------------

 NO OUTPUT CONTROL FOR STRESS PERIOD   19   TIME STEP   16
 
 SOLVING FOR HEAD 
                                                   Max.-Head-Change                         Max.-Flux-Residual
  Residual-Control   Outer-Iter.   Inner-Iter.     Column Row Layer    Maximum-Head-Change  Column Row Layer    Maximum-Flux-Residual          L2-NORM 
          0                 1           2             5    6     1       0.8896165010E-02       5    6    1         0.4827372314E+00      0.1159456067E+01
          0                 2           2             5    6     1      -0.8653477088E-03       5    6    1        -0.4827370726E-01      0.1127860982E+00
          0                 3           1             5    6     1       0.5892694859E-04       5    6    1         0.3379161123E-02      0.7921318046E-02

    ------------------------------------------------
       NWT REQUIRED            3 OUTER ITERATIONS 
       AND A TOTAL OF          5 INNER ITERATIONS.
    ------------------------------------------------

 NO OUTPUT CONTROL FOR STRESS PERIOD   19   TIME STEP   17
 
 SOLVING FOR HEAD 
                                                   Max.-Head-Change                         Max.-Flux-Residual
  Residual-Control   Outer-Iter.   Inner-Iter.     Column Row Layer    Maximum-Head-Change  Column Row Layer    Maximum-Flux-Residual          L2-NORM 
          0                 1           2             5    6     1       0.8534776340E-02       5    6    1         0.4627008331E+00      0.1121005140E+01
          0                 2           2             5    6     1      -0.8301948898E-03       5    6    1        -0.4627006967E-01      0.1088543604E+00
          0                 3           1             5    6     1       0.5653316980E-04       5    6    1         0.3238906401E-02      0.7648160450E-02

    ------------------------------------------------
       NWT REQUIRED            3 OUTER ITERATIONS 
       AND A TOTAL OF          5 INNER ITERATIONS.
    ------------------------------------------------

 NO OUTPUT CONTROL FOR STRESS PERIOD   19   TIME STEP   18
 
 SOLVING FOR HEAD 
                                                   Max.-Head-Change                         Max.-Flux-Residual
  Residual-Control   Outer-Iter.   Inner-Iter.     Column Row Layer    Maximum-Head-Change  Column Row Layer    Maximum-Flux-Residual          L2-NORM 
          0                 1           2             4    7     1      -0.1860541604E+00       4    7    1        -0.9725449031E+01      0.2359435329E+02
          0                 2           2             4    7     1       0.1809776321E-01       4    7    1         0.9725303523E+00      0.2359109207E+01
          0                 3           2             4    7     1      -0.1232392862E-02       4    7    1        -0.6807729176E-01      0.1651310338E+00
          0                 4           1             4    7     1       0.4903805452E-04       4    7    1         0.2784364477E-02      0.6754173608E-02

    ------------------------------------------------
       NWT REQUIRED            4 OUTER ITERATIONS 
       AND A TOTAL OF          7 INNER ITERATIONS.
    ------------------------------------------------

 NO OUTPUT CONTROL FOR STRESS PERIOD   19   TIME STEP   19
 
 SOLVING FOR HEAD 
                                                   Max.-Head-Change                         Max.-Flux-Residual
  Residual-Control   Outer-Iter.   Inner-Iter.     Column Row Layer    Maximum-Head-Change  Column Row Layer    Maximum-Flux-Residual          L2-NORM 
          0                 1           2             4    7     1      -0.1850004764E+00       4    7    1        -0.9674660651E+01      0.2324993252E+02
          0                 2           2             4    7     1       0.1799523826E-01       4    7    1         0.9674494178E+00      0.2327626463E+01
          0                 3           2             4    7     1      -0.1225411585E-02       4    7    1        -0.6772164605E-01      0.1631100403E+00
          0                 4           1             4    7     1       0.4876026175E-04       4    7    1         0.2769818458E-02      0.6702772705E-02

    ------------------------------------------------
       NWT REQUIRED            4 OUTER ITERATIONS 
       AND A TOTAL OF          7 INNER ITERATIONS.
    ------------------------------------------------

 NO OUTPUT CONTROL FOR STRESS PERIOD   19   TIME STEP   20
 
 SOLVING FOR HEAD 
                                                   Max.-Head-Change                         Max.-Flux-Residual
  Residual-Control   Outer-Iter.   Inner-Iter.     Column Row Layer    Maximum-Head-Change  Column Row Layer    Maximum-Flux-Residual          L2-NORM 
          0                 1           2             4    7     1      -0.1838766000E+00       4    7    1        -0.9619861377E+01      0.2283479182E+02
          0                 2           2             4    7     1       0.1788588876E-01       4    7    1         0.9619676188E+00      0.2282827792E+01
          0                 3           2             4    7     1      -0.1217965552E-02       4    7    1        -0.6733793765E-01      0.1597612294E+00
          0                 4           1             4    7     1       0.4846397581E-04       4    7    1         0.2754124670E-02      0.6532706021E-02

    ------------------------------------------------
       NWT REQUIRED            4 OUTER ITERATIONS 
       AND A TOTAL OF          7 INNER ITERATIONS.
    ------------------------------------------------

 NO OUTPUT CONTROL FOR STRESS PERIOD   19   TIME STEP   21
 
 SOLVING FOR HEAD 
                                                   Max.-Head-Change                         Max.-Flux-Residual
  Residual-Control   Outer-Iter.   Inner-Iter.     Column Row Layer    Maximum-Head-Change  Column Row Layer    Maximum-Flux-Residual          L2-NORM 
          0                 1           2             4    7     1      -0.1826889641E+00       4    7    1        -0.9561405070E+01      0.2244059801E+02
          0                 2           2             4    7     1       0.1777034024E-01       4    7    1         0.9561203258E+00      0.2243461076E+01
          0                 3           2             4    7     1      -0.1210097364E-02       4    7    1        -0.6692864270E-01      0.1570102092E+00
          0                 4           1             4    7     1       0.4815089205E-04       4    7    1         0.2737384407E-02      0.6420482776E-02

    ------------------------------------------------
       NWT REQUIRED            4 OUTER ITERATIONS 
       AND A TOTAL OF          7 INNER ITERATIONS.
    ------------------------------------------------

 NO OUTPUT CONTROL FOR STRESS PERIOD   19   TIME STEP   22
 
 SOLVING FOR HEAD 
                                                   Max.-Head-Change                         Max.-Flux-Residual
  Residual-Control   Outer-Iter.   Inner-Iter.     Column Row Layer    Maximum-Head-Change  Column Row Layer    Maximum-Flux-Residual          L2-NORM 
          0                 1           2             5    8     1       0.2628306885E-01       5    8    1         0.1440257543E+01      0.3593481517E+01
          0                 2           2             4   13     1       0.2148892940E-01       4   13    1         0.1275807424E+01      0.2271368637E+01
          0                 3           2             7   13     1      -0.3672064612E-02       7   13    1        -0.2099427160E+00      0.2539876472E+00
          0                 4           2             7   13     1       0.1460223358E-03       7   13    1         0.8582636765E-02      0.1012024198E-01
          0                 5           1             7   13     1      -0.1800774024E-05       7   13    1        -0.1087039473E-03      0.1245204137E-03

    ------------------------------------------------
       NWT REQUIRED            5 OUTER ITERATIONS 
       AND A TOTAL OF          9 INNER ITERATIONS.
    ------------------------------------------------

 NO OUTPUT CONTROL FOR STRESS PERIOD   19   TIME STEP   23
 
 SOLVING FOR HEAD 
                                                   Max.-Head-Change                         Max.-Flux-Residual
  Residual-Control   Outer-Iter.   Inner-Iter.     Column Row Layer    Maximum-Head-Change  Column Row Layer    Maximum-Flux-Residual          L2-NORM 
          0                 1           2             5    8     1       0.2496866650E-01       5    8    1         0.1366927969E+01      0.3489595578E+01
          0                 2           2             4   13     1       0.2156054837E-01       4   13    1         0.1280090020E+01      0.2257926243E+01
          0                 3           2             7   13     1      -0.3509283169E-02       7   13    1        -0.2006240777E+00      0.2465448821E+00
          0                 4           2             7   13     1       0.1395469756E-03       7   13    1         0.8201658419E-02      0.9808383902E-02
          0                 5           1             7   13     1      -0.1721009380E-05       7   13    1        -0.1038768435E-03      0.1205831343E-03

    ------------------------------------------------
       NWT REQUIRED            5 OUTER ITERATIONS 
       AND A TOTAL OF          9 INNER ITERATIONS.
    ------------------------------------------------

 NO OUTPUT CONTROL FOR STRESS PERIOD   19   TIME STEP   24
 
 SOLVING FOR HEAD 
                                                   Max.-Head-Change                         Max.-Flux-Residual
  Residual-Control   Outer-Iter.   Inner-Iter.     Column Row Layer    Maximum-Head-Change  Column Row Layer    Maximum-Flux-Residual          L2-NORM 
          0                 1           2             5    8     1       0.2374247155E-01       5    8    1         0.1298567416E+01      0.3396894377E+01
          0                 2           2             4   13     1       0.2157892767E-01       4   13    1         0.1281209293E+01      0.2257162290E+01
          0                 3           2             7   13     1      -0.3511766976E-02       7   13    1        -0.2007662314E+00      0.2466257893E+00
          0                 4           2             7   13     1       0.1396459614E-03       7   13    1         0.8207481993E-02      0.9811753098E-02
          0                 5           1             7   13     1      -0.1722807890E-05       7   13    1        -0.1039848330E-03      0.1208442143E-03

    ------------------------------------------------
       NWT REQUIRED            5 OUTER ITERATIONS 
       AND A TOTAL OF          9 INNER ITERATIONS.
    ------------------------------------------------

 NO OUTPUT CONTROL FOR STRESS PERIOD   19   TIME STEP   25
 
 SOLVING FOR HEAD 
                                                   Max.-Head-Change                         Max.-Flux-Residual
  Residual-Control   Outer-Iter.   Inner-Iter.     Column Row Layer    Maximum-Head-Change  Column Row Layer    Maximum-Flux-Residual          L2-NORM 
          0                 1           2             5    8     1       0.2259817639E-01       5    8    1         0.1234799610E+01      0.2949910296E+01
          0                 2           2             4   13     1       0.1288867810E-01       4   13    1         0.7651103823E+00      0.1361474282E+01
          0                 3           2             4   13     1      -0.8647894923E-03       4   13    1        -0.5278242291E-01      0.9148495746E-01
          0                 4           1             4   13     1       0.3349246410E-04       4   13    1         0.2101891112E-02      0.3489615744E-02

    ------------------------------------------------
       NWT REQUIRED            4 OUTER ITERATIONS 
       AND A TOTAL OF          7 INNER ITERATIONS.
    ------------------------------------------------

 NO OUTPUT CONTROL FOR STRESS PERIOD   19   TIME STEP   26
 
 SOLVING FOR HEAD 
                                                   Max.-Head-Change                         Max.-Flux-Residual
  Residual-Control   Outer-Iter.   Inner-Iter.     Column Row Layer    Maximum-Head-Change  Column Row Layer    Maximum-Flux-Residual          L2-NORM 
          0                 1           2             5    8     1       0.2152912601E-01       5    8    1         0.1175265044E+01      0.2681248485E+01
          0                 2           2             5    8     1      -0.2094215875E-02       5    8    1        -0.1175278262E+00      0.2667992940E+00
          0                 3           2             5    8     1       0.1426081523E-03       5    8    1         0.8226938867E-02      0.1868464634E-01
          0                 4           1             5    8     1      -0.5674512782E-05       5    8    1        -0.3364823317E-03      0.7708112239E-03

    ------------------------------------------------
       NWT REQUIRED            4 OUTER ITERATIONS 
       AND A TOTAL OF          7 INNER ITERATIONS.
    ------------------------------------------------

 NO OUTPUT CONTROL FOR STRESS PERIOD   19   TIME STEP   27
 
 SOLVING FOR HEAD 
                                                   Max.-Head-Change                         Max.-Flux-Residual
  Residual-Control   Outer-Iter.   Inner-Iter.     Column Row Layer    Maximum-Head-Change  Column Row Layer    Maximum-Flux-Residual          L2-NORM 
          0                 1           2             5    8     1       0.2052944953E-01       5    8    1         0.1119650020E+01      0.2576778031E+01
          0                 2           2             5    8     1      -0.1996972633E-02       5    8    1        -0.1119661815E+00      0.2563215634E+00
          0                 3           2             5    8     1       0.1359862677E-03       5    8    1         0.7837624933E-02      0.1795279466E-01
          0                 4           1             5    8     1      -0.5411021394E-05       5    8    1        -0.3205593459E-03      0.7411837393E-03

    ------------------------------------------------
       NWT REQUIRED            4 OUTER ITERATIONS 
       AND A TOTAL OF          7 INNER ITERATIONS.
    ------------------------------------------------

 NO OUTPUT CONTROL FOR STRESS PERIOD   19   TIME STEP   28
 
 SOLVING FOR HEAD 
                                                   Max.-Head-Change                         Max.-Flux-Residual
  Residual-Control   Outer-Iter.   Inner-Iter.     Column Row Layer    Maximum-Head-Change  Column Row Layer    Maximum-Flux-Residual          L2-NORM 
          0                 1           2             5    6     1       0.1962116945E-01       5    8    1         0.1067667501E+01      0.2478764637E+01
          0                 2           2             5    6     1      -0.1908600381E-02       5    8    1        -0.1067678036E+00      0.2464968094E+00
          0                 3           2             5    6     1       0.1299686635E-03       5    8    1         0.7473739513E-02      0.1726646834E-01
          0                 4           1             5    6     1      -0.5171562893E-05       5    8    1        -0.3056764303E-03      0.7134697659E-03

    ------------------------------------------------
       NWT REQUIRED            4 OUTER ITERATIONS 
       AND A TOTAL OF          7 INNER ITERATIONS.
    ------------------------------------------------

 NO OUTPUT CONTROL FOR STRESS PERIOD   19   TIME STEP   29
 
 SOLVING FOR HEAD 
                                                   Max.-Head-Change                         Max.-Flux-Residual
  Residual-Control   Outer-Iter.   Inner-Iter.     Column Row Layer    Maximum-Head-Change  Column Row Layer    Maximum-Flux-Residual          L2-NORM 
          0                 1           2             5    6     1       0.1877428754E-01       5    6    1         0.1020539668E+01      0.2382768523E+01
          0                 2           2             5    6     1      -0.1826222162E-02       5    6    1        -0.1020536979E+00      0.2371218621E+00
          0                 3           2             5    6     1       0.1243590090E-03       5    6    1         0.7143764497E-02      0.1661436931E-01
          0                 4           1             5    6     1      -0.4948349587E-05       5    6    1        -0.2921803605E-03      0.6872149579E-03

    ------------------------------------------------
       NWT REQUIRED            4 OUTER ITERATIONS 
       AND A TOTAL OF          7 INNER ITERATIONS.
    ------------------------------------------------

 NO OUTPUT CONTROL FOR STRESS PERIOD   19   TIME STEP   30



 STREAM LISTING     PERIOD     19   STEP       30

 LAYER ROW COL. STREAM  RCH.  FLOW INTO     FLOW TO   FLOW OUT OF   OVRLND.     DIRECT     STREAM       STREAM     STREAM     STREAM   STREAMBED  STREAMBED
                SEG.NO.  NO.  STRM. RCH.    AQUIFER    STRM. RCH.    RUNOFF     PRECIP       ET          HEAD       DEPTH      WIDTH   CONDCTNC.   GRADIENT

   1    1    1     1     1    5.4000E+01  3.5066E-01   5.3649E+01  0.000E+00  0.000E+00  0.000E+00  1.09450E+03  1.450E+00  1.751E+01  7.879E-02  1.483E+00
   1    2    2     1     2    5.3649E+01  5.4294E-01   5.3106E+01  0.000E+00  0.000E+00  0.000E+00  1.08950E+03  1.445E+00  1.745E+01  1.222E-01  1.482E+00
   1    3    3     1     3    5.3106E+01  4.6293E-01   5.2643E+01  0.000E+00  0.000E+00  0.000E+00  1.08386E+03  1.438E+00  1.739E+01  1.043E-01  1.479E+00
   1    3    4     1     4    5.2643E+01  4.2621E-01   5.2217E+01  0.000E+00  0.000E+00  0.000E+00  1.07884E+03  1.432E+00  1.733E+01  9.616E-02  1.477E+00
   1    4    5     2     1    5.0217E+01  3.7681E-01   4.9840E+01  0.000E+00  0.000E+00  0.000E+00  1.07376E+03  1.831E+00  1.200E+01  7.800E-02  1.610E+00
   1    5    6     2     2    4.9840E+01  2.8942E-01   4.9551E+01  0.000E+00  0.000E+00  0.000E+00  1.06833E+03  1.824E+00  1.200E+01  6.000E-02  1.608E+00
   1    6    6     2     3    4.9551E+01  2.8904E-01   4.9262E+01  0.000E+00  0.000E+00  0.000E+00  1.06361E+03  1.817E+00  1.200E+01  6.000E-02  1.606E+00
   1    7    6     2     4    4.9262E+01  2.8865E-01   4.8973E+01  0.000E+00  0.000E+00  0.000E+00  1.05889E+03  1.811E+00  1.200E+01  6.000E-02  1.604E+00
   1    8    6     2     5    4.8973E+01  2.8827E-01   4.8685E+01  0.000E+00  0.000E+00  0.000E+00  1.05416E+03  1.804E+00  1.200E+01  6.000E-02  1.601E+00
   1    3    5     3     1    2.0000E+00  2.8252E-01   1.7175E+00  0.000E+00  0.000E+00  0.000E+00  1.07555E+03  1.909E+00  9.636E+00  7.227E-02  1.955E+00
   1    3    6     3     2    1.7175E+00  2.4905E-01   1.4684E+00  0.000E+00  0.000E+00  0.000E+00  1.07264E+03  1.727E+00  8.909E+00  6.682E-02  1.864E+00
   1    3    7     3     3    1.4684E+00  1.9718E-01   1.2712E+00  0.000E+00  0.000E+00  0.000E+00  1.06987E+03  1.555E+00  8.218E+00  5.547E-02  1.777E+00
   1    4    8     3     4    1.2712E+00  2.2567E-01   1.0456E+00  0.000E+00  0.000E+00  0.000E+00  1.06682E+03  1.364E+00  7.455E+00  6.709E-02  1.682E+00
   1    5    8     3     5    1.0456E+00  1.5790E-01   8.8768E-01  0.000E+00  0.000E+00  0.000E+00  1.06362E+03  1.164E+00  6.655E+00  4.991E-02  1.582E+00
   1    6    8     3     6    8.8768E-01  5.5980E-02   8.3170E-01  0.000E+00  0.000E+00  0.000E+00  1.06158E+03  1.036E+00  6.145E+00  1.844E-02  1.518E+00
   1    5   10     4     1    1.0000E+01  9.0919E-02   9.9091E+00  0.000E+00  0.000E+00  0.000E+00  1.07836E+03  6.368E-01  1.000E+01  2.500E-02  1.212E+00
   1    5    9     4     2    9.9091E+00  1.8158E-01   9.7275E+00  0.000E+00  0.000E+00  0.000E+00  1.07154E+03  6.315E-01  1.000E+01  5.000E-02  1.211E+00
   1    6    8     4     3    9.7275E+00  1.2689E-01   9.6006E+00  0.000E+00  0.000E+00  0.000E+00  1.06381E+03  6.256E-01  1.000E+01  3.500E-02  1.209E+00
   1    6    8     5     1    1.0432E+01  2.2686E-01   1.0205E+01  0.000E+00  0.000E+00  0.000E+00  1.05868E+03  6.790E-01  1.542E+01  6.166E-02  1.226E+00
   1    7    7     5     2    1.0205E+01  2.7894E-01   9.9265E+00  0.000E+00  0.000E+00  0.000E+00  1.05417E+03  6.732E-01  1.519E+01  7.594E-02  1.224E+00
   1    8    7     5     3    9.9265E+00  1.9221E-01   9.7343E+00  0.000E+00  0.000E+00  0.000E+00  1.04992E+03  6.676E-01  1.497E+01  5.241E-02  1.223E+00
   1    8    6     5     4    9.7343E+00  1.3577E-01   9.5985E+00  0.000E+00  0.000E+00  0.000E+00  1.04691E+03  6.637E-01  1.482E+01  3.706E-02  1.221E+00
   1    9    6     6     1    5.8284E+01  3.0156E-01   5.7982E+01  0.000E+00  0.000E+00  0.000E+00  1.04475E+03  2.026E+00  1.200E+01  6.000E-02  1.675E+00
   1   10    7     6     2    5.7982E+01  3.0118E-01   5.7681E+01  0.000E+00  0.000E+00  0.000E+00  1.04020E+03  2.020E+00  1.200E+01  6.000E-02  1.673E+00
   1   11    7     6     3    5.7681E+01  3.0080E-01   5.7380E+01  0.000E+00  0.000E+00  0.000E+00  1.03565E+03  2.013E+00  1.200E+01  6.000E-02  1.671E+00
   1   12    7     6     4    5.7380E+01  3.0042E-01   5.7080E+01  0.000E+00  0.000E+00  0.000E+00  1.03110E+03  2.007E+00  1.200E+01  6.000E-02  1.669E+00
   1   13    7     6     5    5.7080E+01  1.8810E-02   5.7061E+01  0.000E+00  0.000E+00  0.000E+00  1.02791E+03  2.004E+00  1.200E+01  2.400E-02  2.613E-01
   1   14    9     7     1    1.5000E+02  1.3328E+00   1.4867E+02  0.000E+00  0.000E+00  0.000E+00  1.03987E+03  2.288E+00  5.529E+01  5.593E-01  7.943E-01
   1   13    8     7     2    1.4867E+02  1.8147E+00   1.4685E+02  0.000E+00  0.000E+00  0.000E+00  1.03478E+03  2.279E+00  5.526E+01  6.148E-01  9.839E-01
   1   13    7     7     3    1.4685E+02  1.4303E+00   1.4542E+02  0.000E+00  0.000E+00  0.000E+00  1.02969E+03  2.271E+00  5.522E+01  5.585E-01  8.537E-01
   1   13    6     8     1    2.0248E+02  1.0270E+00   2.0146E+02  0.000E+00  0.000E+00  0.000E+00  1.02502E+03  3.149E+00  4.566E+01  4.653E-01  7.357E-01
   1   13    5     8     2    2.0146E+02  2.7505E-01   2.0118E+02  0.000E+00  0.000E+00  0.000E+00  1.01877E+03  3.145E+00  4.561E+01  4.648E-01  1.973E-01
   1   13    4     8     3    2.0118E+02 -1.8761E+00   2.0306E+02  0.000E+00  0.000E+00  0.000E+00  1.01253E+03  3.150E+00  4.568E+01  4.655E+00 -1.344E-01
   1   13    3     8     4    2.0306E+02 -3.0906E+00   2.0615E+02  0.000E+00  0.000E+00  0.000E+00  1.00629E+03  3.165E+00  4.589E+01  4.676E+00 -2.203E-01
   1   13    2     8     5    2.0615E+02 -2.1795E+00   2.0833E+02  0.000E+00  0.000E+00  0.000E+00  1.00005E+03  3.180E+00  4.611E+01  4.699E+00 -1.546E-01
   1   13    1     8     6    2.0833E+02 -1.4871E+00   2.0981E+02  0.000E+00  0.000E+00  0.000E+00  9.95065E+02  3.190E+00  4.626E+01  2.828E+00 -1.753E-01
   1    8    6     9     1    0.0000E+00  0.0000E+00   0.0000E+00  0.000E+00  0.000E+00  0.000E+00  1.07875E+03  0.000E+00  4.000E+00  0.000E+00  1.000E+00
   1    8    5     9     2    0.0000E+00  0.0000E+00   0.0000E+00  0.000E+00  0.000E+00  0.000E+00  1.07825E+03  0.000E+00  4.000E+00  0.000E+00  1.000E+00





UNSATURATED ZONE PACKAGE VOLUMETRIC BUDGET FOR  TIME STEP    30 STRESS PERIOD   19
  ------------------------------------------------------------------------------



     CUMULATIVE VOLUMES      L**3       RATES FOR THIS TIME STEP      L**3/T
     ------------------                 ------------------------

           IN:                                      IN:
           ---                                      ---
        INFILTRATION =   256547775.7106          INFILTRATION =           0.8475

          OUT:                                     OUT:
          ----                                     ----
              UZF ET =   126577799.2254                UZF ET =           5.0804
        UZF RECHARGE =    12009311.1836          UZF RECHARGE =           0.1477

            IN - OUT =   117960665.3016              IN - OUT =          -4.3806

          STORAGE:                                 STORAGE:
          --------                                 --------
      STORAGE CHANGE =   118069123.5626        STORAGE CHANGE =          -4.3806

 PERCENT DISCREPANCY IS DIFFERENCE BETWEEN IN-OUT MINUS CHANGE IN STORAGE
 DIVIDED BY THE AVERAGE OF IN AND OUT TIMES 100

 PERCENT DISCREPANCY =          -0.01     PERCENT DISCREPANCY =           0.00






1
  VOLUMETRIC BUDGET FOR ENTIRE MODEL AT END OF TIME STEP   30, STRESS PERIOD  19
  ------------------------------------------------------------------------------

     CUMULATIVE VOLUMES      L**3       RATES FOR THIS TIME STEP      L**3/T
     ------------------                 ------------------------

           IN:                                      IN:
           ---                                      ---
               AWU WELLS =   120709232.0000                 AWU WELLS =           0.0000
      DIVERSION SEGMENTS =    95674008.0000        DIVERSION SEGMENTS =           0.0000
           GW IRRIGATION =           0.0000             GW IRRIGATION =           0.0000
           SW IRRIGATION =           0.0000             SW IRRIGATION =           0.0000
        SYSTEM LOSSES GW =           0.0000          SYSTEM LOSSES GW =           0.0000
        SYSTEM LOSSES SW =           0.0000          SYSTEM LOSSES SW =           0.0000

                TOTAL IN =   216383232.0000                  TOTAL IN =           0.0000

          OUT:                                     OUT:
          ----                                     ----
               AWU WELLS =           0.0000                 AWU WELLS =           0.0000
      DIVERSION SEGMENTS =           0.0000        DIVERSION SEGMENTS =           0.0000
           GW IRRIGATION =   120709232.0000             GW IRRIGATION =           0.0000
           SW IRRIGATION =    95675920.0000             SW IRRIGATION =           0.0000
        SYSTEM LOSSES GW =           0.0000          SYSTEM LOSSES GW =           0.0000
        SYSTEM LOSSES SW =           0.0000          SYSTEM LOSSES SW =           0.0000

               TOTAL OUT =   216385152.0000                 TOTAL OUT =           0.0000

                IN - OUT =       -1920.0000                  IN - OUT =           0.0000

     PERCENT DISCREPANCY =          -0.00         PERCENT DISCREPANCY =           0.00



1
  VOLUMETRIC BUDGET FOR ENTIRE MODEL AT END OF TIME STEP   30, STRESS PERIOD  19
  ------------------------------------------------------------------------------

     CUMULATIVE VOLUMES      L**3       RATES FOR THIS TIME STEP      L**3/T
     ------------------                 ------------------------

           IN:                                      IN:
           ---                                      ---
             STORAGE     =   218991136.0000               STORAGE     =           4.5779
       CONSTANT HEAD     =           0.0000         CONSTANT HEAD     =           0.0000
     HEAD DEP BOUNDS     =    13537458.0000       HEAD DEP BOUNDS     =           0.2856
      STREAM LEAKAGE     =   600403264.0000        STREAM LEAKAGE     =          12.8190
        UZF RECHARGE     =    12009309.0000          UZF RECHARGE     =           0.1477
               GW ET     =           0.0000                 GW ET     =           0.0000
     SURFACE LEAKAGE     =           0.0000       SURFACE LEAKAGE     =           0.0000
           AWU WELLS     =           0.0000             AWU WELLS     =           0.0000

                TOTAL IN =   844941120.0000                  TOTAL IN =          17.8301

          OUT:                                     OUT:
          ----                                     ----
             STORAGE     =   183581536.0000               STORAGE     =           5.8260
       CONSTANT HEAD     =           0.0000         CONSTANT HEAD     =           0.0000
     HEAD DEP BOUNDS     =    13790839.0000       HEAD DEP BOUNDS     =           0.2885
      STREAM LEAKAGE     =   459409184.0000        STREAM LEAKAGE     =           8.6332
        UZF RECHARGE     =           0.0000          UZF RECHARGE     =           0.0000
               GW ET     =    67459568.0000                 GW ET     =           3.0824
     SURFACE LEAKAGE     =           0.0000       SURFACE LEAKAGE     =           0.0000
           AWU WELLS     =   120709232.0000             AWU WELLS     =           0.0000

               TOTAL OUT =   844950400.0000                 TOTAL OUT =          17.8301

                IN - OUT =       -9280.0000                  IN - OUT =       2.6703E-05

     PERCENT DISCREPANCY =          -0.00         PERCENT DISCREPANCY =           0.00






         TIME SUMMARY AT END OF TIME STEP   30 IN STRESS PERIOD   19
                    SECONDS     MINUTES      HOURS       DAYS        YEARS
                    -----------------------------------------------------------
   TIME STEP LENGTH  87600.      1460.0      24.333      1.0139     2.77588E-03
 STRESS PERIOD TIME 2.62800E+06  43800.      730.00      30.417     8.32763E-02
         TOTAL TIME 4.73904E+07 7.89840E+05  13164.      548.50      1.5017    
1
1
                            STRESS PERIOD NO.   20, LENGTH =   2628000.    
                            -----------------------------------------------

                              NUMBER OF TIME STEPS =    30

                               MULTIPLIER FOR DELT =     1.000

                            INITIAL TIME STEP SIZE =   87600.00    

 REUSING NON-PARAMETER GHB CELLS FROM LAST STRESS PERIOD

      2 GHB CELLS

 REUSING STREAM SEGMENT DATA FROM LAST STRESS PERIOD



            AREAL INFILTRATION RATE
 READING ON UNIT   19 WITH FORMAT: (10F4.0)            

            1           2           3           4           5           6           7           8           9          10
 ........................................................................................................................
   1   1.0000E-10  2.0000E-10   0.000       0.000       0.000       0.000       0.000       0.000       0.000       0.000    
   2   2.0000E-10  1.0000E-10  2.0000E-10   0.000       0.000      8.0000E-10  8.0000E-10  5.0000E-10   0.000       0.000    
   3    0.000      5.0000E-10  1.0000E-10  1.0000E-10  8.0000E-10  8.0000E-10  5.0000E-10  5.0000E-10   0.000       0.000    
   4   8.0000E-10  5.0000E-10  1.0000E-10  1.0000E-10  1.0000E-10  1.0000E-10  1.0000E-10  1.0000E-10  2.0000E-10   0.000    
   5   8.0000E-10  5.0000E-10  1.0000E-10  1.0000E-10  1.0000E-10  1.0000E-10  1.0000E-10  1.0000E-10  1.0000E-10  1.0000E-10
   6   8.0000E-10  5.0000E-10  5.0000E-10  2.0000E-10  2.0000E-10  1.0000E-10  1.0000E-10  1.0000E-10  1.0000E-10  5.0000E-10
   7   8.0000E-10  5.0000E-10  5.0000E-10  2.0000E-10  2.0000E-10  1.0000E-10  1.0000E-10  2.0000E-10  2.0000E-10   0.000    
   8    0.000      5.0000E-10  5.0000E-10  2.0000E-10  2.0000E-10  1.0000E-10  1.0000E-10  2.0000E-10  5.0000E-10   0.000    
   9    0.000      5.0000E-10  5.0000E-10  2.0000E-10  2.0000E-10  1.0000E-10  1.0000E-10  2.0000E-10  5.0000E-10   0.000    
  10    0.000      5.0000E-10  5.0000E-10  2.0000E-10  2.0000E-10  1.0000E-10  1.0000E-10  2.0000E-10  5.0000E-10  8.0000E-10
  11    0.000      1.0000E-10  1.0000E-10  1.0000E-10  1.0000E-10  1.0000E-10  1.0000E-10  2.0000E-10  5.0000E-10   0.000    
  12   1.0000E-10  1.0000E-10  1.0000E-10  1.0000E-10  1.0000E-10  1.0000E-10  1.0000E-10  1.0000E-10  2.0000E-10   0.000    
  13   1.0000E-10  1.0000E-10  2.0000E-10  2.0000E-10  2.0000E-10  2.0000E-10  2.0000E-10  1.0000E-10  1.0000E-10   0.000    
  14    0.000      2.0000E-10  5.0000E-10  5.0000E-10  5.0000E-10  5.0000E-10  5.0000E-10  2.0000E-10  1.0000E-10   0.000    
  15    0.000       0.000      8.0000E-10  8.0000E-10  8.0000E-10  8.0000E-10   0.000       0.000       0.000       0.000    

                  ET RATE =  6.000000E-08

 USING ET EXTINCTION DEPTH FROM PREVIOUS STRESS PERIOD. CURRENT PERIOD IS:      20

 USING EXTINCTION WATER CONTENT FROM PREVIOUS STRESS PERIOD. CURRENT PERIOD IS:      20

 PROCESSING AWU STRESS PERIOD DATA

 READING AWU STRESS PERIOD DATA

 READING IRRIGATION STREAM

 READING IRRIGATION WELL

 READING SUPPLEMENTAL WEL

 END PROCESSING AWU STRESS PERIOD DATA OPTIONS
 
 SOLVING FOR HEAD 
                                                   Max.-Head-Change                         Max.-Flux-Residual
  Residual-Control   Outer-Iter.   Inner-Iter.     Column Row Layer    Maximum-Head-Change  Column Row Layer    Maximum-Flux-Residual          L2-NORM 
          0                 1           2             5    6     1       0.1797838574E-01       5    6    1         0.9764799910E+00      0.2683194883E+01
          0                 2           2             5    6     1      -0.1748802990E-02       5    6    1        -0.9764775340E-01      0.2658720446E+00
          0                 3           2             5    6     1       0.1190870466E-03       5    6    1         0.6835348021E-02      0.1849628590E-01
          0                 4           1             5    6     1      -0.4738573744E-05       5    6    1        -0.2795661180E-03      0.7554362743E-03

    ------------------------------------------------
       NWT REQUIRED            4 OUTER ITERATIONS 
       AND A TOTAL OF          7 INNER ITERATIONS.
    ------------------------------------------------

 OUTPUT CONTROL FOR STRESS PERIOD   20   TIME STEP    1
    PRINT BUDGET
    SAVE BUDGET
    SAVE BUDGET
 UBDSV1 SAVING "         STORAGE" ON UNIT 102 AT TIME STEP  1, STRESS PERIOD  20
 UBDSV2 SAVING "   CONSTANT HEAD" ON UNIT 102 AT TIME STEP  1, STRESS PERIOD  20
 UBDSV1 SAVING "FLOW RIGHT FACE " ON UNIT 102 AT TIME STEP  1, STRESS PERIOD  20
 UBDSV1 SAVING "FLOW FRONT FACE " ON UNIT 102 AT TIME STEP  1, STRESS PERIOD  20

  HEAD DEP BOUNDS   PERIOD   20   STEP     1
 BOUNDARY      1   LAYER   1   ROW    13   COL     1   RATE   -0.288029    
 BOUNDARY      2   LAYER   1   ROW    14   COL     9   RATE    0.285551    



 STREAM LISTING     PERIOD     20   STEP        1

 LAYER ROW COL. STREAM  RCH.  FLOW INTO     FLOW TO   FLOW OUT OF   OVRLND.     DIRECT     STREAM       STREAM     STREAM     STREAM   STREAMBED  STREAMBED
                SEG.NO.  NO.  STRM. RCH.    AQUIFER    STRM. RCH.    RUNOFF     PRECIP       ET          HEAD       DEPTH      WIDTH   CONDCTNC.   GRADIENT

   1    1    1     1     1    5.4000E+01  3.5066E-01   5.3649E+01  0.000E+00  0.000E+00  0.000E+00  1.09450E+03  1.450E+00  1.751E+01  7.879E-02  1.483E+00
   1    2    2     1     2    5.3649E+01  5.4294E-01   5.3106E+01  0.000E+00  0.000E+00  0.000E+00  1.08950E+03  1.445E+00  1.745E+01  1.222E-01  1.482E+00
   1    3    3     1     3    5.3106E+01  4.6293E-01   5.2643E+01  0.000E+00  0.000E+00  0.000E+00  1.08386E+03  1.438E+00  1.739E+01  1.043E-01  1.479E+00
   1    3    4     1     4    5.2643E+01  4.2621E-01   5.2217E+01  0.000E+00  0.000E+00  0.000E+00  1.07884E+03  1.432E+00  1.733E+01  9.616E-02  1.477E+00
   1    4    5     2     1    5.0217E+01  3.7681E-01   4.9840E+01  0.000E+00  0.000E+00  0.000E+00  1.07376E+03  1.831E+00  1.200E+01  7.800E-02  1.610E+00
   1    5    6     2     2    4.9840E+01  2.8942E-01   4.9551E+01  0.000E+00  0.000E+00  0.000E+00  1.06833E+03  1.824E+00  1.200E+01  6.000E-02  1.608E+00
   1    6    6     2     3    4.9551E+01  2.8904E-01   4.9262E+01  0.000E+00  0.000E+00  0.000E+00  1.06361E+03  1.817E+00  1.200E+01  6.000E-02  1.606E+00
   1    7    6     2     4    4.9262E+01  2.8865E-01   4.8973E+01  0.000E+00  0.000E+00  0.000E+00  1.05889E+03  1.811E+00  1.200E+01  6.000E-02  1.604E+00
   1    8    6     2     5    4.8973E+01  2.8827E-01   4.8685E+01  0.000E+00  0.000E+00  0.000E+00  1.05416E+03  1.804E+00  1.200E+01  6.000E-02  1.601E+00
   1    3    5     3     1    2.0000E+00  2.8252E-01   1.7175E+00  0.000E+00  0.000E+00  0.000E+00  1.07555E+03  1.909E+00  9.636E+00  7.227E-02  1.955E+00
   1    3    6     3     2    1.7175E+00  2.4905E-01   1.4684E+00  0.000E+00  0.000E+00  0.000E+00  1.07264E+03  1.727E+00  8.909E+00  6.682E-02  1.864E+00
   1    3    7     3     3    1.4684E+00  1.9718E-01   1.2712E+00  0.000E+00  0.000E+00  0.000E+00  1.06987E+03  1.555E+00  8.218E+00  5.547E-02  1.777E+00
   1    4    8     3     4    1.2712E+00  2.2567E-01   1.0456E+00  0.000E+00  0.000E+00  0.000E+00  1.06682E+03  1.364E+00  7.455E+00  6.709E-02  1.682E+00
   1    5    8     3     5    1.0456E+00  1.5790E-01   8.8768E-01  0.000E+00  0.000E+00  0.000E+00  1.06362E+03  1.164E+00  6.655E+00  4.991E-02  1.582E+00
   1    6    8     3     6    8.8768E-01  5.5980E-02   8.3170E-01  0.000E+00  0.000E+00  0.000E+00  1.06158E+03  1.036E+00  6.145E+00  1.844E-02  1.518E+00
   1    5   10     4     1    1.0000E+01  9.0919E-02   9.9091E+00  0.000E+00  0.000E+00  0.000E+00  1.07836E+03  6.368E-01  1.000E+01  2.500E-02  1.212E+00
   1    5    9     4     2    9.9091E+00  1.8158E-01   9.7275E+00  0.000E+00  0.000E+00  0.000E+00  1.07154E+03  6.315E-01  1.000E+01  5.000E-02  1.211E+00
   1    6    8     4     3    9.7275E+00  1.2689E-01   9.6006E+00  0.000E+00  0.000E+00  0.000E+00  1.06381E+03  6.256E-01  1.000E+01  3.500E-02  1.209E+00
   1    6    8     5     1    1.0432E+01  2.2686E-01   1.0205E+01  0.000E+00  0.000E+00  0.000E+00  1.05868E+03  6.790E-01  1.542E+01  6.166E-02  1.226E+00
   1    7    7     5     2    1.0205E+01  2.7894E-01   9.9265E+00  0.000E+00  0.000E+00  0.000E+00  1.05417E+03  6.732E-01  1.519E+01  7.594E-02  1.224E+00
   1    8    7     5     3    9.9265E+00  1.9221E-01   9.7343E+00  0.000E+00  0.000E+00  0.000E+00  1.04992E+03  6.676E-01  1.497E+01  5.241E-02  1.223E+00
   1    8    6     5     4    9.7343E+00  1.3577E-01   9.5985E+00  0.000E+00  0.000E+00  0.000E+00  1.04691E+03  6.637E-01  1.482E+01  3.706E-02  1.221E+00
   1    9    6     6     1    5.8284E+01  3.0156E-01   5.7982E+01  0.000E+00  0.000E+00  0.000E+00  1.04475E+03  2.026E+00  1.200E+01  6.000E-02  1.675E+00
   1   10    7     6     2    5.7982E+01  3.0118E-01   5.7681E+01  0.000E+00  0.000E+00  0.000E+00  1.04020E+03  2.020E+00  1.200E+01  6.000E-02  1.673E+00
   1   11    7     6     3    5.7681E+01  3.0080E-01   5.7380E+01  0.000E+00  0.000E+00  0.000E+00  1.03565E+03  2.013E+00  1.200E+01  6.000E-02  1.671E+00
   1   12    7     6     4    5.7380E+01  3.0042E-01   5.7080E+01  0.000E+00  0.000E+00  0.000E+00  1.03110E+03  2.007E+00  1.200E+01  6.000E-02  1.669E+00
   1   13    7     6     5    5.7080E+01  1.8863E-02   5.7061E+01  0.000E+00  0.000E+00  0.000E+00  1.02791E+03  2.004E+00  1.200E+01  2.400E-02  2.620E-01
   1   14    9     7     1    1.5000E+02  1.3328E+00   1.4867E+02  0.000E+00  0.000E+00  0.000E+00  1.03987E+03  2.288E+00  5.529E+01  5.593E-01  7.943E-01
   1   13    8     7     2    1.4867E+02  1.8148E+00   1.4685E+02  0.000E+00  0.000E+00  0.000E+00  1.03478E+03  2.279E+00  5.526E+01  6.148E-01  9.840E-01
   1   13    7     7     3    1.4685E+02  1.4315E+00   1.4542E+02  0.000E+00  0.000E+00  0.000E+00  1.02969E+03  2.271E+00  5.522E+01  5.585E-01  8.544E-01
   1   13    6     8     1    2.0248E+02  1.0294E+00   2.0145E+02  0.000E+00  0.000E+00  0.000E+00  1.02502E+03  3.149E+00  4.566E+01  4.653E-01  7.374E-01
   1   13    5     8     2    2.0145E+02  2.8060E-01   2.0117E+02  0.000E+00  0.000E+00  0.000E+00  1.01877E+03  3.145E+00  4.561E+01  4.648E-01  2.012E-01
   1   13    4     8     3    2.0117E+02 -1.8297E+00   2.0300E+02  0.000E+00  0.000E+00  0.000E+00  1.01252E+03  3.150E+00  4.567E+01  4.654E+00 -1.310E-01
   1   13    3     8     4    2.0300E+02 -3.0450E+00   2.0605E+02  0.000E+00  0.000E+00  0.000E+00  1.00629E+03  3.164E+00  4.588E+01  4.675E+00 -2.171E-01
   1   13    2     8     5    2.0605E+02 -2.1611E+00   2.0821E+02  0.000E+00  0.000E+00  0.000E+00  1.00005E+03  3.179E+00  4.610E+01  4.698E+00 -1.534E-01
   1   13    1     8     6    2.0821E+02 -1.4566E+00   2.0966E+02  0.000E+00  0.000E+00  0.000E+00  9.95065E+02  3.190E+00  4.625E+01  2.828E+00 -1.717E-01
   1    8    6     9     1    0.0000E+00  0.0000E+00   0.0000E+00  0.000E+00  0.000E+00  0.000E+00  1.07875E+03  0.000E+00  4.000E+00  0.000E+00  1.000E+00
   1    8    5     9     2    0.0000E+00  0.0000E+00   0.0000E+00  0.000E+00  0.000E+00  0.000E+00  1.07825E+03  0.000E+00  4.000E+00  0.000E+00  1.000E+00



 UBDSV3 SAVING "           GW ET" ON UNIT  61 AT TIME STEP  1, STRESS PERIOD  20
 UBDSV3 SAVING "    UZF RECHARGE" ON UNIT  61 AT TIME STEP  1, STRESS PERIOD  20
 UBDSV3 SAVING " SURFACE LEAKAGE" ON UNIT  61 AT TIME STEP  1, STRESS PERIOD  20
 UBDSV3 SAVING "       HORT+DUNN" ON UNIT  61 AT TIME STEP  1, STRESS PERIOD  20
 UBDSV3 SAVING "  STORAGE CHANGE" ON UNIT  61 AT TIME STEP  1, STRESS PERIOD  20


UNSATURATED ZONE PACKAGE VOLUMETRIC BUDGET FOR  TIME STEP     1 STRESS PERIOD   20
  ------------------------------------------------------------------------------



     CUMULATIVE VOLUMES      L**3       RATES FOR THIS TIME STEP      L**3/T
     ------------------                 ------------------------

           IN:                                      IN:
           ---                                      ---
        INFILTRATION =   256622016.7106          INFILTRATION =           0.8475

          OUT:                                     OUT:
          ----                                     ----
              UZF ET =   127461326.0776                UZF ET =          10.0859
        UZF RECHARGE =    12022091.4860          UZF RECHARGE =           0.1459

            IN - OUT =   117138599.1471              IN - OUT =          -9.3843

          STORAGE:                                 STORAGE:
          --------                                 --------
      STORAGE CHANGE =   117247057.3954        STORAGE CHANGE =          -9.3843

 PERCENT DISCREPANCY IS DIFFERENCE BETWEEN IN-OUT MINUS CHANGE IN STORAGE
 DIVIDED BY THE AVERAGE OF IN AND OUT TIMES 100

 PERCENT DISCREPANCY =          -0.01     PERCENT DISCREPANCY =           0.00






 

            AWU WELLS     PERIOD   20   STEP   1
 AWU WELL      1   LAYER   1   ROW     6   COL     4   RATE     0.00000    
 AWU WELL      2   LAYER   1   ROW     6   COL     5   RATE     0.00000    
 AWU WELL      3   LAYER   1   ROW     7   COL     4   RATE     0.00000    
 AWU WELL      4   LAYER   1   ROW     7   COL     5   RATE     0.00000    
 AWU WELL      5   LAYER   1   ROW     8   COL     4   RATE     0.00000    
 AWU WELL      6   LAYER   1   ROW     8   COL     5   RATE     0.00000    
 
 

   DIVERSION SEGMENTS     PERIOD   20   STEP   1
 SEGMENT      9   RATE     0.00000    
 
 

        SW IRRIGATION     PERIOD   20   STEP   1
 SEGMENT      9   ROW     6   COL     4   RATE     0.00000    
 SEGMENT      9   ROW     6   COL     5   RATE     0.00000    
 SEGMENT      9   ROW     7   COL     4   RATE     0.00000    
 SEGMENT      9   ROW     7   COL     5   RATE     0.00000    
 SEGMENT      9   ROW     8   COL     4   RATE     0.00000    
 SEGMENT      9   ROW     8   COL     5   RATE     0.00000    
 
 

        GW IRRIGATION     PERIOD   20   STEP   1
 AWU WELL      1   ROW     6   COL     4   RATE     0.00000    
 AWU WELL      2   ROW     6   COL     5   RATE     0.00000    
 AWU WELL      3   ROW     7   COL     4   RATE     0.00000    
 AWU WELL      4   ROW     7   COL     5   RATE     0.00000    
 AWU WELL      5   ROW     8   COL     4   RATE     0.00000    
 AWU WELL      6   ROW     8   COL     5   RATE     0.00000    
 
1
  VOLUMETRIC BUDGET FOR ENTIRE MODEL AT END OF TIME STEP    1, STRESS PERIOD  20
  ------------------------------------------------------------------------------

     CUMULATIVE VOLUMES      L**3       RATES FOR THIS TIME STEP      L**3/T
     ------------------                 ------------------------

           IN:                                      IN:
           ---                                      ---
               AWU WELLS =   120709232.0000                 AWU WELLS =           0.0000
      DIVERSION SEGMENTS =    95674008.0000        DIVERSION SEGMENTS =           0.0000
           GW IRRIGATION =           0.0000             GW IRRIGATION =           0.0000
           SW IRRIGATION =           0.0000             SW IRRIGATION =           0.0000
        SYSTEM LOSSES GW =           0.0000          SYSTEM LOSSES GW =           0.0000
        SYSTEM LOSSES SW =           0.0000          SYSTEM LOSSES SW =           0.0000

                TOTAL IN =   216383232.0000                  TOTAL IN =           0.0000

          OUT:                                     OUT:
          ----                                     ----
               AWU WELLS =           0.0000                 AWU WELLS =           0.0000
      DIVERSION SEGMENTS =           0.0000        DIVERSION SEGMENTS =           0.0000
           GW IRRIGATION =   120709232.0000             GW IRRIGATION =           0.0000
           SW IRRIGATION =    95675920.0000             SW IRRIGATION =           0.0000
        SYSTEM LOSSES GW =           0.0000          SYSTEM LOSSES GW =           0.0000
        SYSTEM LOSSES SW =           0.0000          SYSTEM LOSSES SW =           0.0000

               TOTAL OUT =   216385152.0000                 TOTAL OUT =           0.0000

                IN - OUT =       -1920.0000                  IN - OUT =           0.0000

     PERCENT DISCREPANCY =          -0.00         PERCENT DISCREPANCY =           0.00



1
  VOLUMETRIC BUDGET FOR ENTIRE MODEL AT END OF TIME STEP    1, STRESS PERIOD  20
  ------------------------------------------------------------------------------

     CUMULATIVE VOLUMES      L**3       RATES FOR THIS TIME STEP      L**3/T
     ------------------                 ------------------------

           IN:                                      IN:
           ---                                      ---
             STORAGE     =   219627328.0000               STORAGE     =           7.2624
       CONSTANT HEAD     =           0.0000         CONSTANT HEAD     =           0.0000
     HEAD DEP BOUNDS     =    13562472.0000       HEAD DEP BOUNDS     =           0.2856
      STREAM LEAKAGE     =   601527040.0000        STREAM LEAKAGE     =          12.8283
        UZF RECHARGE     =    12022089.0000          UZF RECHARGE     =           0.1459
               GW ET     =           0.0000                 GW ET     =           0.0000
     SURFACE LEAKAGE     =           0.0000       SURFACE LEAKAGE     =           0.0000
           AWU WELLS     =           0.0000             AWU WELLS     =           0.0000

                TOTAL IN =   846738880.0000                  TOTAL IN =          20.5221

          OUT:                                     OUT:
          ----                                     ----
             STORAGE     =   184071408.0000               STORAGE     =           5.5921
       CONSTANT HEAD     =           0.0000         CONSTANT HEAD     =           0.0000
     HEAD DEP BOUNDS     =    13816070.0000       HEAD DEP BOUNDS     =           0.2880
      STREAM LEAKAGE     =   460153120.0000        STREAM LEAKAGE     =           8.4925
        UZF RECHARGE     =           0.0000          UZF RECHARGE     =           0.0000
               GW ET     =    67998264.0000                 GW ET     =           6.1495
     SURFACE LEAKAGE     =           0.0000       SURFACE LEAKAGE     =           0.0000
           AWU WELLS     =   120709232.0000             AWU WELLS     =           0.0000

               TOTAL OUT =   846748096.0000                 TOTAL OUT =          20.5221

                IN - OUT =       -9216.0000                  IN - OUT =       1.5259E-05

     PERCENT DISCREPANCY =          -0.00         PERCENT DISCREPANCY =           0.00






         TIME SUMMARY AT END OF TIME STEP    1 IN STRESS PERIOD   20
                    SECONDS     MINUTES      HOURS       DAYS        YEARS
                    -----------------------------------------------------------
   TIME STEP LENGTH  87600.      1460.0      24.333      1.0139     2.77588E-03
 STRESS PERIOD TIME  87600.      1460.0      24.333      1.0139     2.77588E-03
         TOTAL TIME 4.74780E+07 7.91300E+05  13188.      549.51      1.5045    
1
 
 SOLVING FOR HEAD 
                                                   Max.-Head-Change                         Max.-Flux-Residual
  Residual-Control   Outer-Iter.   Inner-Iter.     Column Row Layer    Maximum-Head-Change  Column Row Layer    Maximum-Flux-Residual          L2-NORM 
          0                 1           2             5    6     1       0.1723038993E-01       5    6    1         0.9350987632E+00      0.2571917938E+01
          0                 2           2             5    6     1      -0.1676043733E-02       5    6    1        -0.9350965169E-01      0.2548429845E+00
          0                 3           2             5    6     1       0.1141324074E-03       5    6    1         0.6545680574E-02      0.1773756115E-01
          0                 4           1             5    6     1      -0.4541423946E-05       5    6    1        -0.2677186992E-03      0.7255777688E-03

    ------------------------------------------------
       NWT REQUIRED            4 OUTER ITERATIONS 
       AND A TOTAL OF          7 INNER ITERATIONS.
    ------------------------------------------------

 NO OUTPUT CONTROL FOR STRESS PERIOD   20   TIME STEP    2
 
 SOLVING FOR HEAD 
                                                   Max.-Head-Change                         Max.-Flux-Residual
  Residual-Control   Outer-Iter.   Inner-Iter.     Column Row Layer    Maximum-Head-Change  Column Row Layer    Maximum-Flux-Residual          L2-NORM 
          0                 1           2             4    7     1      -0.1798488717E+00       4    7    1        -0.9403499990E+01      0.2271363015E+02
          0                 2           2             4    7     1       0.1749414406E-01       4    7    1         0.9403344169E+00      0.2270618000E+01
          0                 3           2             4    7     1      -0.1191288770E-02       4    7    1        -0.6582358508E-01      0.1588956096E+00
          0                 4           1             4    7     1       0.4740248344E-04       4    7    1         0.2692187696E-02      0.6496566310E-02

    ------------------------------------------------
       NWT REQUIRED            4 OUTER ITERATIONS 
       AND A TOTAL OF          7 INNER ITERATIONS.
    ------------------------------------------------

 NO OUTPUT CONTROL FOR STRESS PERIOD   20   TIME STEP    3
 
 SOLVING FOR HEAD 
                                                   Max.-Head-Change                         Max.-Flux-Residual
  Residual-Control   Outer-Iter.   Inner-Iter.     Column Row Layer    Maximum-Head-Change  Column Row Layer    Maximum-Flux-Residual          L2-NORM 
          0                 1           2             4   13     1      -0.2658975310E-01       4   13    1        -0.1519369332E+01      0.3875069533E+01
          0                 2           2             4   13     1       0.2120143919E-01       4   13    1         0.1260604868E+01      0.2212221860E+01
          0                 3           2             7   13     1      -0.3235966456E-02       7   13    1        -0.1854485858E+00      0.2328274014E+00
          0                 4           2             7   13     1       0.1286768332E-03       7   13    1         0.7581269210E-02      0.9242776337E-02
          0                 5           1             7   13     1      -0.1590633296E-05       7   13    1        -0.9621737945E-04      0.1193987564E-03

    ------------------------------------------------
       NWT REQUIRED            5 OUTER ITERATIONS 
       AND A TOTAL OF          9 INNER ITERATIONS.
    ------------------------------------------------

 NO OUTPUT CONTROL FOR STRESS PERIOD   20   TIME STEP    4
 
 SOLVING FOR HEAD 
                                                   Max.-Head-Change                         Max.-Flux-Residual
  Residual-Control   Outer-Iter.   Inner-Iter.     Column Row Layer    Maximum-Head-Change  Column Row Layer    Maximum-Flux-Residual          L2-NORM 
          0                 1           2             4   13     1      -0.2604540903E-01       4   13    1        -0.1488349721E+01      0.3769277246E+01
          0                 2           2             4   13     1       0.2119356286E-01       4   13    1         0.1260156880E+01      0.2209896304E+01
          0                 3           2             7   13     1      -0.3243917924E-02       7   13    1        -0.1859051821E+00      0.2330411234E+00
          0                 4           2             7   13     1       0.1289924569E-03       7   13    1         0.7599888851E-02      0.9250225878E-02
          0                 5           1             7   13     1      -0.1594222251E-05       7   13    1        -0.9643468911E-04      0.1187509202E-03

    ------------------------------------------------
       NWT REQUIRED            5 OUTER ITERATIONS 
       AND A TOTAL OF          9 INNER ITERATIONS.
    ------------------------------------------------

 NO OUTPUT CONTROL FOR STRESS PERIOD   20   TIME STEP    5
 
 SOLVING FOR HEAD 
                                                   Max.-Head-Change                         Max.-Flux-Residual
  Residual-Control   Outer-Iter.   Inner-Iter.     Column Row Layer    Maximum-Head-Change  Column Row Layer    Maximum-Flux-Residual          L2-NORM 
          0                 1           2             4   13     1      -0.2554997349E-01       4   13    1        -0.1460134213E+01      0.3670759154E+01
          0                 2           2             4   13     1       0.2118694022E-01       4   13    1         0.1259782751E+01      0.2207840254E+01
          0                 3           2             7   13     1      -0.3251715128E-02       7   13    1        -0.1863526673E+00      0.2332833791E+00
          0                 4           2             7   13     1       0.1293028734E-03       7   13    1         0.7618207977E-02      0.9257853344E-02
          0                 5           1             4   13     1      -0.1703898553E-05       4   13    1        -0.1108221340E-03      0.1552022772E-03

    ------------------------------------------------
       NWT REQUIRED            5 OUTER ITERATIONS 
       AND A TOTAL OF          9 INNER ITERATIONS.
    ------------------------------------------------

 NO OUTPUT CONTROL FOR STRESS PERIOD   20   TIME STEP    6
 
 SOLVING FOR HEAD 
                                                   Max.-Head-Change                         Max.-Flux-Residual
  Residual-Control   Outer-Iter.   Inner-Iter.     Column Row Layer    Maximum-Head-Change  Column Row Layer    Maximum-Flux-Residual          L2-NORM 
          0                 1           2             4   13     1      -0.2510110256E-01       4   13    1        -0.1434587393E+01      0.3579058258E+01
          0                 2           2             4   13     1       0.1788593106E-01       4   13    1         0.1062215734E+01      0.1865553322E+01
          0                 3           2             7   13     1      -0.2530074120E-02       7   13    1        -0.1449747329E+00      0.1877718245E+00
          0                 4           1             7   13     1       0.1006057820E-03       7   13    1         0.5926597069E-02      0.7435738898E-02
          0                 5           1             7   13     1      -0.1243632393E-05       7   13    1        -0.7521822386E-04      0.9754093007E-04

    ------------------------------------------------
       NWT REQUIRED            5 OUTER ITERATIONS 
       AND A TOTAL OF          8 INNER ITERATIONS.
    ------------------------------------------------

 NO OUTPUT CONTROL FOR STRESS PERIOD   20   TIME STEP    7
 
 SOLVING FOR HEAD 
                                                   Max.-Head-Change                         Max.-Flux-Residual
  Residual-Control   Outer-Iter.   Inner-Iter.     Column Row Layer    Maximum-Head-Change  Column Row Layer    Maximum-Flux-Residual          L2-NORM 
          0                 1           2             4   13     1      -0.2437271592E-01       4   13    1        -0.1392866243E+01      0.3475421902E+01
          0                 2           2             4   13     1       0.2116640201E-01       4   13    1         0.1258589866E+01      0.2203564681E+01
          0                 3           2             7   13     1      -0.3267220929E-02       7   13    1        -0.1872426586E+00      0.2337604880E+00
          0                 4           2             7   13     1       0.1299195242E-03       7   13    1         0.7654605267E-02      0.9280324464E-02
          0                 5           1             7   13     1      -0.1605376017E-05       7   13    1        -0.9710871063E-04      0.1191375120E-03

    ------------------------------------------------
       NWT REQUIRED            5 OUTER ITERATIONS 
       AND A TOTAL OF          9 INNER ITERATIONS.
    ------------------------------------------------

 NO OUTPUT CONTROL FOR STRESS PERIOD   20   TIME STEP    8
 
 SOLVING FOR HEAD 
                                                   Max.-Head-Change                         Max.-Flux-Residual
  Residual-Control   Outer-Iter.   Inner-Iter.     Column Row Layer    Maximum-Head-Change  Column Row Layer    Maximum-Flux-Residual          L2-NORM 
          0                 1           2             4   13     1      -0.2403780105E-01       4   13    1        -0.1373869972E+01      0.3397224131E+01
          0                 2           2             4   13     1       0.2116426490E-01       4   13    1         0.1258482604E+01      0.2202100481E+01
          0                 3           2             7   13     1      -0.3274583303E-02       7   13    1        -0.1876652002E+00      0.2340139682E+00
          0                 4           2             7   13     1       0.1302118668E-03       7   13    1         0.7671858947E-02      0.9289712667E-02
          0                 5           1             7   13     1      -0.1607985514E-05       7   13    1        -0.9726653025E-04      0.1192688003E-03

    ------------------------------------------------
       NWT REQUIRED            5 OUTER ITERATIONS 
       AND A TOTAL OF          9 INNER ITERATIONS.
    ------------------------------------------------

 NO OUTPUT CONTROL FOR STRESS PERIOD   20   TIME STEP    9
 
 SOLVING FOR HEAD 
                                                   Max.-Head-Change                         Max.-Flux-Residual
  Residual-Control   Outer-Iter.   Inner-Iter.     Column Row Layer    Maximum-Head-Change  Column Row Layer    Maximum-Flux-Residual          L2-NORM 
          0                 1           2             5    6     1       0.1634989179E-01       5    6    1         0.8848863351E+00      0.2613260344E+01
          0                 2           2             4   13     1       0.9204177355E-02       4   13    1         0.5468983251E+00      0.9779508475E+00
          0                 3           2             4   13     1      -0.6174011189E-03       4   13    1        -0.3771783224E-01      0.6571613998E-01
          0                 4           1             4   13     1       0.2379214417E-04       4   13    1         0.1494451519E-02      0.2499224410E-02

    ------------------------------------------------
       NWT REQUIRED            4 OUTER ITERATIONS 
       AND A TOTAL OF          7 INNER ITERATIONS.
    ------------------------------------------------

 NO OUTPUT CONTROL FOR STRESS PERIOD   20   TIME STEP   10
 
 SOLVING FOR HEAD 
                                                   Max.-Head-Change                         Max.-Flux-Residual
  Residual-Control   Outer-Iter.   Inner-Iter.     Column Row Layer    Maximum-Head-Change  Column Row Layer    Maximum-Flux-Residual          L2-NORM 
          0                 1           2             5    6     1       0.1572481252E-01       5    6    1         0.8503990660E+00      0.2230314313E+01
          0                 2           2             5    6     1      -0.1529592891E-02       5    6    1        -0.8503971767E-01      0.2215044092E+00
          0                 3           2             5    6     1       0.1041596399E-03       5    6    1         0.5952784603E-02      0.1549311676E-01
          0                 4           1             5    6     1      -0.4144598909E-05       5    6    1        -0.2434692242E-03      0.6395698591E-03

    ------------------------------------------------
       NWT REQUIRED            4 OUTER ITERATIONS 
       AND A TOTAL OF          7 INNER ITERATIONS.
    ------------------------------------------------

 NO OUTPUT CONTROL FOR STRESS PERIOD   20   TIME STEP   11
 
 SOLVING FOR HEAD 
                                                   Max.-Head-Change                         Max.-Flux-Residual
  Residual-Control   Outer-Iter.   Inner-Iter.     Column Row Layer    Maximum-Head-Change  Column Row Layer    Maximum-Flux-Residual          L2-NORM 
          0                 1           2             5    6     1       0.1513506589E-01       5    6    1         0.8178815930E+00      0.2160446159E+01
          0                 2           2             5    6     1      -0.1472226839E-02       5    6    1        -0.8178798588E-01      0.2145073053E+00
          0                 3           1             5    6     1       0.1002529826E-03       5    6    1         0.5725163127E-02      0.1500615263E-01
          0                 4           1             5    6     1      -0.3988916921E-05       5    6    1        -0.2341448921E-03      0.6199707934E-03

    ------------------------------------------------
       NWT REQUIRED            4 OUTER ITERATIONS 
       AND A TOTAL OF          6 INNER ITERATIONS.
    ------------------------------------------------

 NO OUTPUT CONTROL FOR STRESS PERIOD   20   TIME STEP   12
 
 SOLVING FOR HEAD 
                                                   Max.-Head-Change                         Max.-Flux-Residual
  Residual-Control   Outer-Iter.   Inner-Iter.     Column Row Layer    Maximum-Head-Change  Column Row Layer    Maximum-Flux-Residual          L2-NORM 
          0                 1           2             5    6     1       0.1457851904E-01       5    6    1         0.7872140723E+00      0.2094569564E+01
          0                 2           2             5    6     1      -0.1418090178E-02       5    6    1        -0.7872124802E-01      0.2079059913E+00
          0                 3           1             5    6     1       0.9656647998E-04       5    6    1         0.5510491256E-02      0.1454690017E-01

    ------------------------------------------------
       NWT REQUIRED            3 OUTER ITERATIONS 
       AND A TOTAL OF          5 INNER ITERATIONS.
    ------------------------------------------------

 NO OUTPUT CONTROL FOR STRESS PERIOD   20   TIME STEP   13
 
 SOLVING FOR HEAD 
                                                   Max.-Head-Change                         Max.-Flux-Residual
  Residual-Control   Outer-Iter.   Inner-Iter.     Column Row Layer    Maximum-Head-Change  Column Row Layer    Maximum-Flux-Residual          L2-NORM 
          0                 1           2             5    6     1       0.1405245265E-01       5    6    1         0.7582437434E+00      0.2032371648E+01
          0                 2           2             5    6     1      -0.1366918396E-02       5    6    1        -0.7582422809E-01      0.2016712960E+00
          0                 3           1             5    6     1       0.9308187479E-04       5    6    1         0.5307699659E-02      0.1411301126E-01

    ------------------------------------------------
       NWT REQUIRED            3 OUTER ITERATIONS 
       AND A TOTAL OF          5 INNER ITERATIONS.
    ------------------------------------------------

 NO OUTPUT CONTROL FOR STRESS PERIOD   20   TIME STEP   14
 
 SOLVING FOR HEAD 
                                                   Max.-Head-Change                         Max.-Flux-Residual
  Residual-Control   Outer-Iter.   Inner-Iter.     Column Row Layer    Maximum-Head-Change  Column Row Layer    Maximum-Flux-Residual          L2-NORM 
          0                 1           2             5    7     1       0.1356188333E-01       5    6    1         0.7308975755E+00      0.1973612473E+01
          0                 2           2             5    7     1      -0.1319200459E-02       5    6    1        -0.7308962313E-01      0.1957825998E+00
          0                 3           1             5    7     1       0.8983269489E-04       5    6    1         0.5116277099E-02      0.1370298031E-01

    ------------------------------------------------
       NWT REQUIRED            3 OUTER ITERATIONS 
       AND A TOTAL OF          5 INNER ITERATIONS.
    ------------------------------------------------

 NO OUTPUT CONTROL FOR STRESS PERIOD   20   TIME STEP   15
 
 SOLVING FOR HEAD 
                                                   Max.-Head-Change                         Max.-Flux-Residual
  Residual-Control   Outer-Iter.   Inner-Iter.     Column Row Layer    Maximum-Head-Change  Column Row Layer    Maximum-Flux-Residual          L2-NORM 
          0                 1           2             5    7     1       0.1328552916E-01       5    7    1         0.7053763204E+00      0.1918024946E+01
          0                 2           2             5    7     1      -0.1292318984E-02       5    7    1        -0.7053757766E-01      0.1902086615E+00
          0                 3           1             5    7     1       0.8800216488E-04       5    7    1         0.4937633086E-02      0.1331483495E-01

    ------------------------------------------------
       NWT REQUIRED            3 OUTER ITERATIONS 
       AND A TOTAL OF          5 INNER ITERATIONS.
    ------------------------------------------------

 NO OUTPUT CONTROL FOR STRESS PERIOD   20   TIME STEP   16
 
 SOLVING FOR HEAD 
                                                   Max.-Head-Change                         Max.-Flux-Residual
  Residual-Control   Outer-Iter.   Inner-Iter.     Column Row Layer    Maximum-Head-Change  Column Row Layer    Maximum-Flux-Residual          L2-NORM 
          0                 1           2             4    7     1      -0.1787262670E+00       4    7    1        -0.9338356903E+01      0.2293710070E+02
          0                 2           2             4    7     1       0.1738499159E-01       4    7    1         0.9338232935E+00      0.2293413202E+01
          0                 3           2             4    7     1      -0.1183855439E-02       4    7    1        -0.6536777611E-01      0.1605187229E+00
          0                 4           1             4    7     1       0.4710670659E-04       4    7    1         0.2673545239E-02      0.6566030773E-02

    ------------------------------------------------
       NWT REQUIRED            4 OUTER ITERATIONS 
       AND A TOTAL OF          7 INNER ITERATIONS.
    ------------------------------------------------

 NO OUTPUT CONTROL FOR STRESS PERIOD   20   TIME STEP   17
 
 SOLVING FOR HEAD 
                                                   Max.-Head-Change                         Max.-Flux-Residual
  Residual-Control   Outer-Iter.   Inner-Iter.     Column Row Layer    Maximum-Head-Change  Column Row Layer    Maximum-Flux-Residual          L2-NORM 
          0                 1           2             4   13     1      -0.2052235539E-01       4   13    1        -0.1173222503E+01      0.3164576733E+01
          0                 2           2             4   13     1       0.2106888002E-01       4   13    1         0.1252914690E+01      0.2206775276E+01
          0                 3           2             7   13     1      -0.3492919330E-02       7   13    1        -0.2001949927E+00      0.2435566435E+00
          0                 4           2             7   13     1       0.1388936173E-03       7   13    1         0.8184047440E-02      0.9688787735E-02
          0                 5           1             7   13     1      -0.1713946396E-05       7   13    1        -0.1037353600E-03      0.1229478997E-03

    ------------------------------------------------
       NWT REQUIRED            5 OUTER ITERATIONS 
       AND A TOTAL OF          9 INNER ITERATIONS.
    ------------------------------------------------

 NO OUTPUT CONTROL FOR STRESS PERIOD   20   TIME STEP   18
 
 SOLVING FOR HEAD 
                                                   Max.-Head-Change                         Max.-Flux-Residual
  Residual-Control   Outer-Iter.   Inner-Iter.     Column Row Layer    Maximum-Head-Change  Column Row Layer    Maximum-Flux-Residual          L2-NORM 
          0                 1           2             4   13     1      -0.2059701983E-01       4   13    1        -0.1177737896E+01      0.3105416537E+01
          0                 2           2             4   13     1       0.2112649996E-01       4   13    1         0.1256363977E+01      0.2194791594E+01
          0                 3           2             7   13     1      -0.3345578480E-02       7   13    1        -0.1917397011E+00      0.2368426083E+00
          0                 4           2             7   13     1       0.1330380834E-03       7   13    1         0.7838436082E-02      0.9408766759E-02
          0                 5           1             7   13     1      -0.1643771790E-05       7   13    1        -0.9951084007E-04      0.1211534309E-03

    ------------------------------------------------
       NWT REQUIRED            5 OUTER ITERATIONS 
       AND A TOTAL OF          9 INNER ITERATIONS.
    ------------------------------------------------

 NO OUTPUT CONTROL FOR STRESS PERIOD   20   TIME STEP   19
 
 SOLVING FOR HEAD 
                                                   Max.-Head-Change                         Max.-Flux-Residual
  Residual-Control   Outer-Iter.   Inner-Iter.     Column Row Layer    Maximum-Head-Change  Column Row Layer    Maximum-Flux-Residual          L2-NORM 
          0                 1           2             4   13     1      -0.2061954014E-01       4   13    1        -0.1179260149E+01      0.3053491565E+01
          0                 2           2             4   13     1       0.2113407747E-01       4   13    1         0.1256833981E+01      0.2194169024E+01
          0                 3           2             7   13     1      -0.3351525360E-02       7   13    1        -0.1920808868E+00      0.2370422892E+00
          0                 4           2             7   13     1       0.1332792264E-03       7   13    1         0.7852324794E-02      0.9416081703E-02
          0                 5           1             7   13     1      -0.1644851613E-05       7   13    1        -0.9956084455E-04      0.1195361087E-03

    ------------------------------------------------
       NWT REQUIRED            5 OUTER ITERATIONS 
       AND A TOTAL OF          9 INNER ITERATIONS.
    ------------------------------------------------

 NO OUTPUT CONTROL FOR STRESS PERIOD   20   TIME STEP   20
 
 SOLVING FOR HEAD 
                                                   Max.-Head-Change                         Max.-Flux-Residual
  Residual-Control   Outer-Iter.   Inner-Iter.     Column Row Layer    Maximum-Head-Change  Column Row Layer    Maximum-Flux-Residual          L2-NORM 
          0                 1           2             4   13     1      -0.2063673466E-01       4   13    1        -0.1180460615E+01      0.3004959207E+01
          0                 2           2             4   13     1       0.1766694298E-01       4   13    1         0.1049363131E+01      0.1834888763E+01
          0                 3           2             7   13     1      -0.2601898458E-02       7   13    1        -0.1490981703E+00      0.1894622786E+00
          0                 4           2             7   13     1       0.1034753805E-03       7   13    1         0.6095117003E-02      0.7510721531E-02
          0                 5           1             7   13     1      -0.1278770103E-05       7   13    1        -0.7737619308E-04      0.9828008492E-04

    ------------------------------------------------
       NWT REQUIRED            5 OUTER ITERATIONS 
       AND A TOTAL OF          9 INNER ITERATIONS.
    ------------------------------------------------

 NO OUTPUT CONTROL FOR STRESS PERIOD   20   TIME STEP   21
 
 SOLVING FOR HEAD 
                                                   Max.-Head-Change                         Max.-Flux-Residual
  Residual-Control   Outer-Iter.   Inner-Iter.     Column Row Layer    Maximum-Head-Change  Column Row Layer    Maximum-Flux-Residual          L2-NORM 
          0                 1           2             4   13     1      -0.2031027711E-01       4   13    1        -0.1161789177E+01      0.2940560378E+01
          0                 2           2             4   13     1       0.2113675628E-01       4   13    1         0.1257018385E+01      0.2192473298E+01
          0                 3           2             7   13     1      -0.3363488137E-02       7   13    1        -0.1927669118E+00      0.2374961779E+00
          0                 4           2             7   13     1       0.1337633709E-03       7   13    1         0.7880271472E-02      0.9434653392E-02
          0                 5           1             7   13     1      -0.1650323986E-05       7   13    1        -0.9988089732E-04      0.1201739578E-03

    ------------------------------------------------
       NWT REQUIRED            5 OUTER ITERATIONS 
       AND A TOTAL OF          9 INNER ITERATIONS.
    ------------------------------------------------

 NO OUTPUT CONTROL FOR STRESS PERIOD   20   TIME STEP   22
 
 SOLVING FOR HEAD 
                                                   Max.-Head-Change                         Max.-Flux-Residual
  Residual-Control   Outer-Iter.   Inner-Iter.     Column Row Layer    Maximum-Head-Change  Column Row Layer    Maximum-Flux-Residual          L2-NORM 
          0                 1           2             4   13     1      -0.2035480398E-01       4   13    1        -0.1164550292E+01      0.2899350443E+01
          0                 2           2             4   13     1       0.2114447701E-01       4   13    1         0.1257494948E+01      0.2192140175E+01
          0                 3           2             7   13     1      -0.3369134029E-02       7   13    1        -0.1930909012E+00      0.2377349999E+00
          0                 4           2             7   13     1       0.1339884315E-03       7   13    1         0.7893549435E-02      0.9444945990E-02
          0                 5           1             7   13     1      -0.1653795998E-05       7   13    1        -0.1000910454E-03      0.1225286675E-03

    ------------------------------------------------
       NWT REQUIRED            5 OUTER ITERATIONS 
       AND A TOTAL OF          9 INNER ITERATIONS.
    ------------------------------------------------

 NO OUTPUT CONTROL FOR STRESS PERIOD   20   TIME STEP   23
 
 SOLVING FOR HEAD 
                                                   Max.-Head-Change                         Max.-Flux-Residual
  Residual-Control   Outer-Iter.   Inner-Iter.     Column Row Layer    Maximum-Head-Change  Column Row Layer    Maximum-Flux-Residual          L2-NORM 
          0                 1           2             5    6     1       0.1385073983E-01       5    6    1         0.7465836634E+00      0.2024534332E+01
          0                 2           2             4   13     1       0.4457649075E-02       4   13    1         0.2647064272E+00      0.5018953899E+00
          0                 3           2             4   13     1      -0.2989616901E-03       4   13    1        -0.1825272363E-01      0.3387451480E-01
          0                 4           1             4   13     1       0.1142898847E-04       4   13    1         0.7174279981E-03      0.1292745638E-02

    ------------------------------------------------
       NWT REQUIRED            4 OUTER ITERATIONS 
       AND A TOTAL OF          7 INNER ITERATIONS.
    ------------------------------------------------

 NO OUTPUT CONTROL FOR STRESS PERIOD   20   TIME STEP   24
 
 SOLVING FOR HEAD 
                                                   Max.-Head-Change                         Max.-Flux-Residual
  Residual-Control   Outer-Iter.   Inner-Iter.     Column Row Layer    Maximum-Head-Change  Column Row Layer    Maximum-Flux-Residual          L2-NORM 
          0                 1           2             5    7     1       0.1357823362E-01       5    6    1         0.7204060714E+00      0.1905165476E+01
          0                 2           2             5    7     1      -0.1320791263E-02       5    6    1        -0.7204048583E-01      0.1891074344E+00
          0                 3           1             5    7     1       0.8994103232E-04       5    6    1         0.5042837312E-02      0.1325254221E-01

    ------------------------------------------------
       NWT REQUIRED            3 OUTER ITERATIONS 
       AND A TOTAL OF          5 INNER ITERATIONS.
    ------------------------------------------------

 NO OUTPUT CONTROL FOR STRESS PERIOD   20   TIME STEP   25
 
 SOLVING FOR HEAD 
                                                   Max.-Head-Change                         Max.-Flux-Residual
  Residual-Control   Outer-Iter.   Inner-Iter.     Column Row Layer    Maximum-Head-Change  Column Row Layer    Maximum-Flux-Residual          L2-NORM 
          0                 1           2             5    7     1       0.1331302982E-01       5    7    1         0.7062247264E+00      0.1856376588E+01
          0                 2           2             5    7     1      -0.1294994389E-02       5    7    1        -0.7062244175E-01      0.1841933941E+00
          0                 3           1             5    7     1       0.8818435951E-04       5    7    1         0.4943573344E-02      0.1290893028E-01

    ------------------------------------------------
       NWT REQUIRED            3 OUTER ITERATIONS 
       AND A TOTAL OF          5 INNER ITERATIONS.
    ------------------------------------------------

 NO OUTPUT CONTROL FOR STRESS PERIOD   20   TIME STEP   26
 
 SOLVING FOR HEAD 
                                                   Max.-Head-Change                         Max.-Flux-Residual
  Residual-Control   Outer-Iter.   Inner-Iter.     Column Row Layer    Maximum-Head-Change  Column Row Layer    Maximum-Flux-Residual          L2-NORM 
          0                 1           2             4    7     1       0.1312034253E-01       5    7    1         0.6924306456E+00      0.1809997428E+01
          0                 2           2             4    7     1      -0.1276251861E-02       5    7    1        -0.6924304746E-01      0.1795205021E+00
          0                 3           1             4    7     1       0.8690801653E-04       5    7    1         0.4847015571E-02      0.1258219124E-01

    ------------------------------------------------
       NWT REQUIRED            3 OUTER ITERATIONS 
       AND A TOTAL OF          5 INNER ITERATIONS.
    ------------------------------------------------

 NO OUTPUT CONTROL FOR STRESS PERIOD   20   TIME STEP   27
 
 SOLVING FOR HEAD 
                                                   Max.-Head-Change                         Max.-Flux-Residual
  Residual-Control   Outer-Iter.   Inner-Iter.     Column Row Layer    Maximum-Head-Change  Column Row Layer    Maximum-Flux-Residual          L2-NORM 
          0                 1           2             4    7     1       0.1302408665E-01       4    7    1         0.6822464723E+00      0.1765884378E+01
          0                 2           2             4    7     1      -0.1266889004E-02       4    7    1        -0.6822467914E-01      0.1750748573E+00
          0                 3           1             4    7     1       0.8627043838E-04       4    7    1         0.4775729293E-02      0.1227139412E-01

    ------------------------------------------------
       NWT REQUIRED            3 OUTER ITERATIONS 
       AND A TOTAL OF          5 INNER ITERATIONS.
    ------------------------------------------------

 NO OUTPUT CONTROL FOR STRESS PERIOD   20   TIME STEP   28
 
 SOLVING FOR HEAD 
                                                   Max.-Head-Change                         Max.-Flux-Residual
  Residual-Control   Outer-Iter.   Inner-Iter.     Column Row Layer    Maximum-Head-Change  Column Row Layer    Maximum-Flux-Residual          L2-NORM 
          0                 1           2             4    7     1       0.1292169198E-01       4    7    1         0.6772370099E+00      0.1723871225E+01
          0                 2           2             4    7     1      -0.1256928988E-02       4    7    1        -0.6772374614E-01      0.1708406027E+00
          0                 3           1             4    7     1       0.8559219621E-04       4    7    1         0.4740663834E-02      0.1197541160E-01

    ------------------------------------------------
       NWT REQUIRED            3 OUTER ITERATIONS 
       AND A TOTAL OF          5 INNER ITERATIONS.
    ------------------------------------------------

 NO OUTPUT CONTROL FOR STRESS PERIOD   20   TIME STEP   29
 
 SOLVING FOR HEAD 
                                                   Max.-Head-Change                         Max.-Flux-Residual
  Residual-Control   Outer-Iter.   Inner-Iter.     Column Row Layer    Maximum-Head-Change  Column Row Layer    Maximum-Flux-Residual          L2-NORM 
          0                 1           2             4    7     1       0.1281375653E-01       4    7    1         0.6719090239E+00      0.1698593753E+01
          0                 2           2             4    7     1      -0.1246429983E-02       4    7    1        -0.6719095934E-01      0.1684296550E+00
          0                 3           1             4    7     1       0.8487725170E-04       4    7    1         0.4703368658E-02      0.1179915376E-01

    ------------------------------------------------
       NWT REQUIRED            3 OUTER ITERATIONS 
       AND A TOTAL OF          5 INNER ITERATIONS.
    ------------------------------------------------

 NO OUTPUT CONTROL FOR STRESS PERIOD   20   TIME STEP   30



 STREAM LISTING     PERIOD     20   STEP       30

 LAYER ROW COL. STREAM  RCH.  FLOW INTO     FLOW TO   FLOW OUT OF   OVRLND.     DIRECT     STREAM       STREAM     STREAM     STREAM   STREAMBED  STREAMBED
                SEG.NO.  NO.  STRM. RCH.    AQUIFER    STRM. RCH.    RUNOFF     PRECIP       ET          HEAD       DEPTH      WIDTH   CONDCTNC.   GRADIENT

   1    1    1     1     1    5.0429E+01  3.3757E-01   5.0092E+01  0.000E+00  0.000E+00  0.000E+00  1.09445E+03  1.403E+00  1.704E+01  7.666E-02  1.468E+00
   1    2    2     1     2    5.0092E+01  5.2280E-01   4.9569E+01  0.000E+00  0.000E+00  0.000E+00  1.08946E+03  1.399E+00  1.698E+01  1.188E-01  1.466E+00
   1    3    3     1     3    4.9569E+01  4.4614E-01   4.9123E+01  0.000E+00  0.000E+00  0.000E+00  1.08381E+03  1.396E+00  1.692E+01  1.015E-01  1.465E+00
   1    3    4     1     4    4.9123E+01  4.1106E-01   4.8712E+01  0.000E+00  0.000E+00  0.000E+00  1.07880E+03  1.393E+00  1.686E+01  9.357E-02  1.464E+00
   1    4    5     2     1    4.6712E+01  3.7073E-01   4.6341E+01  0.000E+00  0.000E+00  0.000E+00  1.07369E+03  1.753E+00  1.200E+01  7.800E-02  1.584E+00
   1    5    6     2     2    4.6341E+01  2.8473E-01   4.6056E+01  0.000E+00  0.000E+00  0.000E+00  1.06825E+03  1.746E+00  1.200E+01  6.000E-02  1.582E+00
   1    6    6     2     3    4.6056E+01  2.8434E-01   4.5772E+01  0.000E+00  0.000E+00  0.000E+00  1.06353E+03  1.739E+00  1.200E+01  6.000E-02  1.580E+00
   1    7    6     2     4    4.5772E+01  2.8395E-01   4.5488E+01  0.000E+00  0.000E+00  0.000E+00  1.05881E+03  1.733E+00  1.200E+01  6.000E-02  1.578E+00
   1    8    6     2     5    4.5488E+01  2.8357E-01   4.5204E+01  0.000E+00  0.000E+00  0.000E+00  1.05408E+03  1.726E+00  1.200E+01  6.000E-02  1.575E+00
   1    3    5     3     1    2.0000E+00  2.8252E-01   1.7175E+00  0.000E+00  0.000E+00  0.000E+00  1.07555E+03  1.909E+00  9.636E+00  7.227E-02  1.955E+00
   1    3    6     3     2    1.7175E+00  2.4905E-01   1.4684E+00  0.000E+00  0.000E+00  0.000E+00  1.07264E+03  1.727E+00  8.909E+00  6.682E-02  1.864E+00
   1    3    7     3     3    1.4684E+00  1.9718E-01   1.2712E+00  0.000E+00  0.000E+00  0.000E+00  1.06987E+03  1.555E+00  8.218E+00  5.547E-02  1.777E+00
   1    4    8     3     4    1.2712E+00  2.2567E-01   1.0456E+00  0.000E+00  0.000E+00  0.000E+00  1.06682E+03  1.364E+00  7.455E+00  6.709E-02  1.682E+00
   1    5    8     3     5    1.0456E+00  1.5790E-01   8.8768E-01  0.000E+00  0.000E+00  0.000E+00  1.06362E+03  1.164E+00  6.655E+00  4.991E-02  1.582E+00
   1    6    8     3     6    8.8768E-01  5.5980E-02   8.3170E-01  0.000E+00  0.000E+00  0.000E+00  1.06158E+03  1.036E+00  6.145E+00  1.844E-02  1.518E+00
   1    5   10     4     1    1.0000E+01  9.0919E-02   9.9091E+00  0.000E+00  0.000E+00  0.000E+00  1.07836E+03  6.368E-01  1.000E+01  2.500E-02  1.212E+00
   1    5    9     4     2    9.9091E+00  1.8158E-01   9.7275E+00  0.000E+00  0.000E+00  0.000E+00  1.07154E+03  6.315E-01  1.000E+01  5.000E-02  1.211E+00
   1    6    8     4     3    9.7275E+00  1.2689E-01   9.6006E+00  0.000E+00  0.000E+00  0.000E+00  1.06381E+03  6.256E-01  1.000E+01  3.500E-02  1.209E+00
   1    6    8     5     1    1.0432E+01  2.2686E-01   1.0205E+01  0.000E+00  0.000E+00  0.000E+00  1.05868E+03  6.790E-01  1.542E+01  6.166E-02  1.226E+00
   1    7    7     5     2    1.0205E+01  2.7894E-01   9.9265E+00  0.000E+00  0.000E+00  0.000E+00  1.05417E+03  6.732E-01  1.519E+01  7.594E-02  1.224E+00
   1    8    7     5     3    9.9265E+00  1.9221E-01   9.7343E+00  0.000E+00  0.000E+00  0.000E+00  1.04992E+03  6.676E-01  1.497E+01  5.241E-02  1.223E+00
   1    8    6     5     4    9.7343E+00  1.3577E-01   9.5985E+00  0.000E+00  0.000E+00  0.000E+00  1.04691E+03  6.637E-01  1.482E+01  3.706E-02  1.221E+00
   1    9    6     6     1    5.4803E+01  2.9714E-01   5.4506E+01  0.000E+00  0.000E+00  0.000E+00  1.04468E+03  1.952E+00  1.200E+01  6.000E-02  1.651E+00
   1   10    7     6     2    5.4506E+01  2.9676E-01   5.4209E+01  0.000E+00  0.000E+00  0.000E+00  1.04013E+03  1.946E+00  1.200E+01  6.000E-02  1.649E+00
   1   11    7     6     3    5.4209E+01  2.9637E-01   5.3913E+01  0.000E+00  0.000E+00  0.000E+00  1.03558E+03  1.940E+00  1.200E+01  6.000E-02  1.647E+00
   1   12    7     6     4    5.3913E+01  2.9599E-01   5.3617E+01  0.000E+00  0.000E+00  0.000E+00  1.03102E+03  1.933E+00  1.200E+01  6.000E-02  1.644E+00
   1   13    7     6     5    5.3617E+01  1.8308E-02   5.3598E+01  0.000E+00  0.000E+00  0.000E+00  1.02784E+03  1.930E+00  1.200E+01  2.400E-02  2.543E-01
   1   14    9     7     1    1.5000E+02  1.3326E+00   1.4867E+02  0.000E+00  0.000E+00  0.000E+00  1.03987E+03  2.288E+00  5.529E+01  5.593E-01  7.942E-01
   1   13    8     7     2    1.4867E+02  1.8203E+00   1.4685E+02  0.000E+00  0.000E+00  0.000E+00  1.03478E+03  2.279E+00  5.526E+01  6.148E-01  9.870E-01
   1   13    7     7     3    1.4685E+02  1.4598E+00   1.4539E+02  0.000E+00  0.000E+00  0.000E+00  1.02969E+03  2.271E+00  5.522E+01  5.585E-01  8.713E-01
   1   13    6     8     1    1.9899E+02  1.0669E+00   1.9792E+02  0.000E+00  0.000E+00  0.000E+00  1.02500E+03  3.129E+00  4.536E+01  4.623E-01  7.693E-01
   1   13    5     8     2    1.9792E+02  3.6850E-01   1.9755E+02  0.000E+00  0.000E+00  0.000E+00  1.01875E+03  3.124E+00  4.530E+01  4.617E-01  2.661E-01
   1   13    4     8     3    1.9755E+02 -1.3854E+00   1.9894E+02  0.000E+00  0.000E+00  0.000E+00  1.01250E+03  3.127E+00  4.535E+01  4.621E+00 -9.993E-02
   1   13    3     8     4    1.9894E+02 -2.6409E+00   2.0158E+02  0.000E+00  0.000E+00  0.000E+00  1.00626E+03  3.139E+00  4.552E+01  4.639E+00 -1.898E-01
   1   13    2     8     5    2.0158E+02 -1.9521E+00   2.0353E+02  0.000E+00  0.000E+00  0.000E+00  1.00003E+03  3.153E+00  4.571E+01  4.658E+00 -1.397E-01
   1   13    1     8     6    2.0353E+02 -1.0553E+00   2.0458E+02  0.000E+00  0.000E+00  0.000E+00  9.95036E+02  3.161E+00  4.584E+01  2.803E+00 -1.255E-01
   1    8    6     9     1    0.0000E+00  0.0000E+00   0.0000E+00  0.000E+00  0.000E+00  0.000E+00  1.07875E+03  0.000E+00  4.000E+00  0.000E+00  1.000E+00
   1    8    5     9     2    0.0000E+00  0.0000E+00   0.0000E+00  0.000E+00  0.000E+00  0.000E+00  1.07825E+03  0.000E+00  4.000E+00  0.000E+00  1.000E+00





UNSATURATED ZONE PACKAGE VOLUMETRIC BUDGET FOR  TIME STEP    30 STRESS PERIOD   20
  ------------------------------------------------------------------------------



     CUMULATIVE VOLUMES      L**3       RATES FOR THIS TIME STEP      L**3/T
     ------------------                 ------------------------

           IN:                                      IN:
           ---                                      ---
        INFILTRATION =   276873709.9693          INFILTRATION =           0.8475

          OUT:                                     OUT:
          ----                                     ----
              UZF ET =   152030156.9938                UZF ET =           9.5450
        UZF RECHARGE =    12347312.2808          UZF RECHARGE =           0.1117

            IN - OUT =   112496240.6947              IN - OUT =          -8.8093

          STORAGE:                                 STORAGE:
          --------                                 --------
      STORAGE CHANGE =   112616501.5822        STORAGE CHANGE =          -8.8093

 PERCENT DISCREPANCY IS DIFFERENCE BETWEEN IN-OUT MINUS CHANGE IN STORAGE
 DIVIDED BY THE AVERAGE OF IN AND OUT TIMES 100

 PERCENT DISCREPANCY =          -0.01     PERCENT DISCREPANCY =           0.00






1
  VOLUMETRIC BUDGET FOR ENTIRE MODEL AT END OF TIME STEP   30, STRESS PERIOD  20
  ------------------------------------------------------------------------------

     CUMULATIVE VOLUMES      L**3       RATES FOR THIS TIME STEP      L**3/T
     ------------------                 ------------------------

           IN:                                      IN:
           ---                                      ---
               AWU WELLS =   131221232.0000                 AWU WELLS =           0.0000
      DIVERSION SEGMENTS =   103261080.0000        DIVERSION SEGMENTS =           0.0000
           GW IRRIGATION =           0.0000             GW IRRIGATION =           0.0000
           SW IRRIGATION =           0.0000             SW IRRIGATION =           0.0000
        SYSTEM LOSSES GW =           0.0000          SYSTEM LOSSES GW =           0.0000
        SYSTEM LOSSES SW =           0.0000          SYSTEM LOSSES SW =           0.0000

                TOTAL IN =   234482304.0000                  TOTAL IN =           0.0000

          OUT:                                     OUT:
          ----                                     ----
               AWU WELLS =           0.0000                 AWU WELLS =           0.0000
      DIVERSION SEGMENTS =           0.0000        DIVERSION SEGMENTS =           0.0000
           GW IRRIGATION =   131221232.0000             GW IRRIGATION =           0.0000
           SW IRRIGATION =   103263136.0000             SW IRRIGATION =           0.0000
        SYSTEM LOSSES GW =           0.0000          SYSTEM LOSSES GW =           0.0000
        SYSTEM LOSSES SW =           0.0000          SYSTEM LOSSES SW =           0.0000

               TOTAL OUT =   234484368.0000                 TOTAL OUT =           0.0000

                IN - OUT =       -2064.0000                  IN - OUT =           0.0000

     PERCENT DISCREPANCY =          -0.00         PERCENT DISCREPANCY =           0.00



1
  VOLUMETRIC BUDGET FOR ENTIRE MODEL AT END OF TIME STEP   30, STRESS PERIOD  20
  ------------------------------------------------------------------------------

     CUMULATIVE VOLUMES      L**3       RATES FOR THIS TIME STEP      L**3/T
     ------------------                 ------------------------

           IN:                                      IN:
           ---                                      ---
             STORAGE     =   243817104.0000               STORAGE     =           4.2674
       CONSTANT HEAD     =           0.0000         CONSTANT HEAD     =           0.0000
     HEAD DEP BOUNDS     =    14287867.0000       HEAD DEP BOUNDS     =           0.2855
      STREAM LEAKAGE     =   634275968.0000        STREAM LEAKAGE     =          12.8790
        UZF RECHARGE     =    12347308.0000          UZF RECHARGE     =           0.1117
               GW ET     =           0.0000                 GW ET     =           0.0000
     SURFACE LEAKAGE     =           0.0000       SURFACE LEAKAGE     =           0.0000
           AWU WELLS     =           0.0000             AWU WELLS     =           0.0000

                TOTAL IN =   904728256.0000                  TOTAL IN =          17.5437

          OUT:                                     OUT:
          ----                                     ----
             STORAGE     =   196549536.0000               STORAGE     =           4.3219
       CONSTANT HEAD     =           0.0000         CONSTANT HEAD     =           0.0000
     HEAD DEP BOUNDS     =    14537134.0000       HEAD DEP BOUNDS     =           0.2817
      STREAM LEAKAGE     =   479205184.0000        STREAM LEAKAGE     =           7.0336
        UZF RECHARGE     =           0.0000          UZF RECHARGE     =           0.0000
               GW ET     =    83224168.0000                 GW ET     =           5.9063
     SURFACE LEAKAGE     =           0.0000       SURFACE LEAKAGE     =           0.0000
           AWU WELLS     =   131221232.0000             AWU WELLS     =           0.0000

               TOTAL OUT =   904737280.0000                 TOTAL OUT =          17.5435

                IN - OUT =       -9024.0000                  IN - OUT =       2.2316E-04

     PERCENT DISCREPANCY =          -0.00         PERCENT DISCREPANCY =           0.00






         TIME SUMMARY AT END OF TIME STEP   30 IN STRESS PERIOD   20
                    SECONDS     MINUTES      HOURS       DAYS        YEARS
                    -----------------------------------------------------------
   TIME STEP LENGTH  87600.      1460.0      24.333      1.0139     2.77588E-03
 STRESS PERIOD TIME 2.62800E+06  43800.      730.00      30.417     8.32763E-02
         TOTAL TIME 5.00184E+07 8.33640E+05  13894.      578.92      1.5850    
1
1
                            STRESS PERIOD NO.   21, LENGTH =   2628000.    
                            -----------------------------------------------

                              NUMBER OF TIME STEPS =    30

                               MULTIPLIER FOR DELT =     1.000

                            INITIAL TIME STEP SIZE =   87600.00    

 REUSING NON-PARAMETER GHB CELLS FROM LAST STRESS PERIOD

      2 GHB CELLS

 REUSING STREAM SEGMENT DATA FROM LAST STRESS PERIOD



            AREAL INFILTRATION RATE
 READING ON UNIT   19 WITH FORMAT: (10F4.0)            

            1           2           3           4           5           6           7           8           9          10
 ........................................................................................................................
   1   1.0000E-10  2.0000E-10   0.000       0.000       0.000       0.000       0.000       0.000       0.000       0.000    
   2   2.0000E-10  1.0000E-10  2.0000E-10   0.000       0.000      8.0000E-10  8.0000E-10  5.0000E-10   0.000       0.000    
   3    0.000      5.0000E-10  1.0000E-10  1.0000E-10  8.0000E-10  8.0000E-10  5.0000E-10  5.0000E-10   0.000       0.000    
   4   8.0000E-10  5.0000E-10  1.0000E-10  1.0000E-10  1.0000E-10  1.0000E-10  1.0000E-10  1.0000E-10  2.0000E-10   0.000    
   5   8.0000E-10  5.0000E-10  1.0000E-10  1.0000E-10  1.0000E-10  1.0000E-10  1.0000E-10  1.0000E-10  1.0000E-10  1.0000E-10
   6   8.0000E-10  5.0000E-10  5.0000E-10  2.0000E-10  2.0000E-10  1.0000E-10  1.0000E-10  1.0000E-10  1.0000E-10  5.0000E-10
   7   8.0000E-10  5.0000E-10  5.0000E-10  2.0000E-10  2.0000E-10  1.0000E-10  1.0000E-10  2.0000E-10  2.0000E-10   0.000    
   8    0.000      5.0000E-10  5.0000E-10  2.0000E-10  2.0000E-10  1.0000E-10  1.0000E-10  2.0000E-10  5.0000E-10   0.000    
   9    0.000      5.0000E-10  5.0000E-10  2.0000E-10  2.0000E-10  1.0000E-10  1.0000E-10  2.0000E-10  5.0000E-10   0.000    
  10    0.000      5.0000E-10  5.0000E-10  2.0000E-10  2.0000E-10  1.0000E-10  1.0000E-10  2.0000E-10  5.0000E-10  8.0000E-10
  11    0.000      1.0000E-10  1.0000E-10  1.0000E-10  1.0000E-10  1.0000E-10  1.0000E-10  2.0000E-10  5.0000E-10   0.000    
  12   1.0000E-10  1.0000E-10  1.0000E-10  1.0000E-10  1.0000E-10  1.0000E-10  1.0000E-10  1.0000E-10  2.0000E-10   0.000    
  13   1.0000E-10  1.0000E-10  2.0000E-10  2.0000E-10  2.0000E-10  2.0000E-10  2.0000E-10  1.0000E-10  1.0000E-10   0.000    
  14    0.000      2.0000E-10  5.0000E-10  5.0000E-10  5.0000E-10  5.0000E-10  5.0000E-10  2.0000E-10  1.0000E-10   0.000    
  15    0.000       0.000      8.0000E-10  8.0000E-10  8.0000E-10  8.0000E-10   0.000       0.000       0.000       0.000    

                  ET RATE =  8.500000E-08

 USING ET EXTINCTION DEPTH FROM PREVIOUS STRESS PERIOD. CURRENT PERIOD IS:      21

 USING EXTINCTION WATER CONTENT FROM PREVIOUS STRESS PERIOD. CURRENT PERIOD IS:      21

 PROCESSING AWU STRESS PERIOD DATA

 READING AWU STRESS PERIOD DATA

 READING IRRIGATION STREAM

 READING IRRIGATION WELL

 READING SUPPLEMENTAL WEL

 END PROCESSING AWU STRESS PERIOD DATA OPTIONS
 
 SOLVING FOR HEAD 
                                                   Max.-Head-Change                         Max.-Flux-Residual
  Residual-Control   Outer-Iter.   Inner-Iter.     Column Row Layer    Maximum-Head-Change  Column Row Layer    Maximum-Flux-Residual          L2-NORM 
          0                 1           2             4    7     1      -0.1786797867E+00       5    8    1        -0.9418391886E+01      0.2318765815E+02
          0                 2           2             4    7     1       0.1738048733E-01       5    8    1         0.9417693948E+00      0.2319949252E+01
          0                 3           2             4    7     1      -0.1183548549E-02       5    8    1        -0.6592454636E-01      0.1624470023E+00
          0                 4           1             4    7     1       0.4709449570E-04       5    8    1         0.2696314646E-02      0.6660298150E-02

    ------------------------------------------------
       NWT REQUIRED            4 OUTER ITERATIONS 
       AND A TOTAL OF          7 INNER ITERATIONS.
    ------------------------------------------------

 NO OUTPUT CONTROL FOR STRESS PERIOD   21   TIME STEP    1
 
 SOLVING FOR HEAD 
                                                   Max.-Head-Change                         Max.-Flux-Residual
  Residual-Control   Outer-Iter.   Inner-Iter.     Column Row Layer    Maximum-Head-Change  Column Row Layer    Maximum-Flux-Residual          L2-NORM 
          0                 1           2             4   13     1      -0.2700539920E-01       4   13    1        -0.1545609337E+01      0.3555302612E+01
          0                 2           2             4   13     1       0.1526088007E-01       4   13    1         0.9067698104E+00      0.1602026672E+01
          0                 3           2             7   13     1      -0.2089290501E-02       7   13    1        -0.1199567166E+00      0.1573854813E+00
          0                 4           1             7   13     1       0.8309439576E-04       7   13    1         0.4903970329E-02      0.6231186159E-02

    ------------------------------------------------
       NWT REQUIRED            4 OUTER ITERATIONS 
       AND A TOTAL OF          7 INNER ITERATIONS.
    ------------------------------------------------

 NO OUTPUT CONTROL FOR STRESS PERIOD   21   TIME STEP    2
 
 SOLVING FOR HEAD 
                                                   Max.-Head-Change                         Max.-Flux-Residual
  Residual-Control   Outer-Iter.   Inner-Iter.     Column Row Layer    Maximum-Head-Change  Column Row Layer    Maximum-Flux-Residual          L2-NORM 
          0                 1           2             4   13     1      -0.2587560984E-01       4   13    1        -0.1480610096E+01      0.3432777817E+01
          0                 2           2             4   13     1       0.1525264798E-01       4   13    1         0.9062869128E+00      0.1585647679E+01
          0                 3           2             7   13     1      -0.1952874275E-02       7   13    1        -0.1121126601E+00      0.1514496939E+00
          0                 4           1             7   13     1       0.7767078585E-04       7   13    1         0.4583292427E-02      0.5981920086E-02

    ------------------------------------------------
       NWT REQUIRED            4 OUTER ITERATIONS 
       AND A TOTAL OF          7 INNER ITERATIONS.
    ------------------------------------------------

 NO OUTPUT CONTROL FOR STRESS PERIOD   21   TIME STEP    3
 
 SOLVING FOR HEAD 
                                                   Max.-Head-Change                         Max.-Flux-Residual
  Residual-Control   Outer-Iter.   Inner-Iter.     Column Row Layer    Maximum-Head-Change  Column Row Layer    Maximum-Flux-Residual          L2-NORM 
          0                 1           2             4    7     1      -0.1239161156E+00       4    7    1        -0.6475465751E+01      0.1597949446E+02
          0                 2           2             4    7     1      -0.4157043409E-01       5    6    1        -0.2180697927E+01      0.5340448424E+01
          0                 3           2             4    7     1       0.4043659990E-02       5    6    1         0.2180693547E+00      0.5336813936E+00
          0                 4           2             4    7     1      -0.2753583494E-03       5    6    1        -0.1526486557E-01      0.3734292725E-01
          0                 5           1             4    7     1       0.1095676580E-04       5    6    1         0.6243338576E-03      0.1527107740E-02

    ------------------------------------------------
       NWT REQUIRED            5 OUTER ITERATIONS 
       AND A TOTAL OF          9 INNER ITERATIONS.
    ------------------------------------------------

 NO OUTPUT CONTROL FOR STRESS PERIOD   21   TIME STEP    4
 
 SOLVING FOR HEAD 
                                                   Max.-Head-Change                         Max.-Flux-Residual
  Residual-Control   Outer-Iter.   Inner-Iter.     Column Row Layer    Maximum-Head-Change  Column Row Layer    Maximum-Flux-Residual          L2-NORM 
          0                 1           2             4    7     1      -0.1769252788E+00       4    7    1        -0.9249454491E+01      0.2239600926E+02
          0                 2           2             4    7     1       0.1720977065E-01       4    7    1         0.9249307016E+00      0.2238797178E+01
          0                 3           2             4    7     1      -0.1171923873E-02       4    7    1        -0.6474531664E-01      0.1566569205E+00
          0                 4           1             4    7     1       0.4663193695E-04       4    7    1         0.2648086504E-02      0.6404153921E-02

    ------------------------------------------------
       NWT REQUIRED            4 OUTER ITERATIONS 
       AND A TOTAL OF          7 INNER ITERATIONS.
    ------------------------------------------------

 NO OUTPUT CONTROL FOR STRESS PERIOD   21   TIME STEP    5
 
 SOLVING FOR HEAD 
                                                   Max.-Head-Change                         Max.-Flux-Residual
  Residual-Control   Outer-Iter.   Inner-Iter.     Column Row Layer    Maximum-Head-Change  Column Row Layer    Maximum-Flux-Residual          L2-NORM 
          0                 1           2             4    7     1      -0.1392394274E+00       4    7    1        -0.7284145779E+01      0.1735281185E+02
          0                 2           2             5    6     1      -0.2305247717E-01       5    8    1        -0.1236705866E+01      0.2990131998E+01
          0                 3           2             5    6     1       0.2242375622E-02       5    8    1         0.1236461872E+00      0.2984123520E+00
          0                 4           2             5    6     1      -0.1526974863E-03       5    8    1        -0.8653675127E-02      0.2086223911E-01
          0                 5           1             5    6     1       0.6075966178E-05       5    8    1         0.3538733285E-03      0.8527666976E-03

    ------------------------------------------------
       NWT REQUIRED            5 OUTER ITERATIONS 
       AND A TOTAL OF          9 INNER ITERATIONS.
    ------------------------------------------------

 NO OUTPUT CONTROL FOR STRESS PERIOD   21   TIME STEP    6
 
 SOLVING FOR HEAD 
                                                   Max.-Head-Change                         Max.-Flux-Residual
  Residual-Control   Outer-Iter.   Inner-Iter.     Column Row Layer    Maximum-Head-Change  Column Row Layer    Maximum-Flux-Residual          L2-NORM 
          0                 1           2             4    7     1      -0.9816001714E-01       4    7    1        -0.5141212543E+01      0.1195909996E+02
          0                 2           2             4    7     1      -0.6684419001E-01       5    8    1        -0.3558634210E+01      0.8651951625E+01
          0                 3           2             4    7     1       0.6502094755E-02       5    8    1         0.3558511255E+00      0.8650238959E+00
          0                 4           2             4    7     1      -0.4427687660E-03       5    8    1        -0.2490953008E-01      0.6054475865E-01
          0                 5           1             4    7     1       0.1761818253E-04       5    8    1         0.1018794639E-02      0.2476308902E-02

    ------------------------------------------------
       NWT REQUIRED            5 OUTER ITERATIONS 
       AND A TOTAL OF          9 INNER ITERATIONS.
    ------------------------------------------------

 NO OUTPUT CONTROL FOR STRESS PERIOD   21   TIME STEP    7
 
 SOLVING FOR HEAD 
                                                   Max.-Head-Change                         Max.-Flux-Residual
  Residual-Control   Outer-Iter.   Inner-Iter.     Column Row Layer    Maximum-Head-Change  Column Row Layer    Maximum-Flux-Residual          L2-NORM 
          0                 1           2             5    8     1       0.3193819755E-01       5    8    1         0.1743447035E+01      0.4054617768E+01
          0                 2           2             5    8     1      -0.3106756813E-02       5    8    1        -0.1743475764E+00      0.4189585213E+00
          0                 3           2             5    8     1       0.2115582197E-03       5    8    1         0.1220430844E-01      0.3026558839E-01
          0                 4           1             7   13     1      -0.1276341205E-04       7   13    1        -0.7350961214E-03      0.1376399505E-02

    ------------------------------------------------
       NWT REQUIRED            4 OUTER ITERATIONS 
       AND A TOTAL OF          7 INNER ITERATIONS.
    ------------------------------------------------

 NO OUTPUT CONTROL FOR STRESS PERIOD   21   TIME STEP    8
 
 SOLVING FOR HEAD 
                                                   Max.-Head-Change                         Max.-Flux-Residual
  Residual-Control   Outer-Iter.   Inner-Iter.     Column Row Layer    Maximum-Head-Change  Column Row Layer    Maximum-Flux-Residual          L2-NORM 
          0                 1           2             5    8     1       0.3045677097E-01       5    8    1         0.1660984047E+01      0.3904486665E+01
          0                 2           2             5    8     1      -0.2962649944E-02       5    8    1        -0.1661009648E+00      0.3898966774E+00
          0                 3           2             5    8     1       0.2017451195E-03       5    8    1         0.1162704833E-01      0.2728257995E-01
          0                 4           1             5    8     1      -0.8027628716E-05       5    8    1        -0.4755470470E-03      0.1118445696E-02

    ------------------------------------------------
       NWT REQUIRED            4 OUTER ITERATIONS 
       AND A TOTAL OF          7 INNER ITERATIONS.
    ------------------------------------------------

 NO OUTPUT CONTROL FOR STRESS PERIOD   21   TIME STEP    9
 
 SOLVING FOR HEAD 
                                                   Max.-Head-Change                         Max.-Flux-Residual
  Residual-Control   Outer-Iter.   Inner-Iter.     Column Row Layer    Maximum-Head-Change  Column Row Layer    Maximum-Flux-Residual          L2-NORM 
          0                 1           2             5    8     1       0.2907182905E-01       5    8    1         0.1583949199E+01      0.3762869674E+01
          0                 2           2             5    8     1      -0.2827928925E-02       5    8    1        -0.1583972039E+00      0.3757389560E+00
          0                 3           2             5    8     1       0.1925711562E-03       5    8    1         0.1108778746E-01      0.2629318674E-01
          0                 4           1             5    8     1      -0.7662587877E-05       5    8    1        -0.4534912277E-03      0.1078277611E-02

    ------------------------------------------------
       NWT REQUIRED            4 OUTER ITERATIONS 
       AND A TOTAL OF          7 INNER ITERATIONS.
    ------------------------------------------------

 NO OUTPUT CONTROL FOR STRESS PERIOD   21   TIME STEP   10
 
 SOLVING FOR HEAD 
                                                   Max.-Head-Change                         Max.-Flux-Residual
  Residual-Control   Outer-Iter.   Inner-Iter.     Column Row Layer    Maximum-Head-Change  Column Row Layer    Maximum-Flux-Residual          L2-NORM 
          0                 1           2             5    8     1       0.2777592388E-01       5    8    1         0.1511920764E+01      0.3630112211E+01
          0                 2           2             5    8     1      -0.2701869211E-02       5    8    1        -0.1511941164E+00      0.3624659716E+00
          0                 3           2             5    8     1       0.1839869908E-03       5    8    1         0.1058357342E-01      0.2536550829E-01
          0                 4           1             5    8     1      -0.7321016030E-05       5    8    1        -0.4328688369E-03      0.1040343986E-02

    ------------------------------------------------
       NWT REQUIRED            4 OUTER ITERATIONS 
       AND A TOTAL OF          7 INNER ITERATIONS.
    ------------------------------------------------

 NO OUTPUT CONTROL FOR STRESS PERIOD   21   TIME STEP   11
 
 SOLVING FOR HEAD 
                                                   Max.-Head-Change                         Max.-Flux-Residual
  Residual-Control   Outer-Iter.   Inner-Iter.     Column Row Layer    Maximum-Head-Change  Column Row Layer    Maximum-Flux-Residual          L2-NORM 
          0                 1           2             5    8     1       0.2656252063E-01       5    8    1         0.1444528086E+01      0.3505505764E+01
          0                 2           2             5    8     1      -0.2583835086E-02       5    8    1        -0.1444546330E+00      0.3500069521E+00
          0                 3           2             5    8     1       0.1759493347E-03       5    8    1         0.1011181142E-01      0.2449485094E-01
          0                 4           1             5    8     1      -0.7001190059E-05       5    8    1        -0.4135737386E-03      0.1005004337E-02

    ------------------------------------------------
       NWT REQUIRED            4 OUTER ITERATIONS 
       AND A TOTAL OF          7 INNER ITERATIONS.
    ------------------------------------------------

 NO OUTPUT CONTROL FOR STRESS PERIOD   21   TIME STEP   12
 
 SOLVING FOR HEAD 
                                                   Max.-Head-Change                         Max.-Flux-Residual
  Residual-Control   Outer-Iter.   Inner-Iter.     Column Row Layer    Maximum-Head-Change  Column Row Layer    Maximum-Flux-Residual          L2-NORM 
          0                 1           2             5    6     1       0.2543863600E-01       5    8    1         0.1381416286E+01      0.3388428351E+01
          0                 2           2             5    6     1      -0.2474477626E-02       5    8    1        -0.1381432621E+00      0.3382997639E+00
          0                 3           2             5    6     1       0.1685028275E-03       5    8    1         0.9670017073E-02      0.2367671262E-01
          0                 4           1             5    6     1      -0.6704870727E-05       5    8    1        -0.3955043319E-03      0.9716627333E-03

    ------------------------------------------------
       NWT REQUIRED            4 OUTER ITERATIONS 
       AND A TOTAL OF          7 INNER ITERATIONS.
    ------------------------------------------------

 NO OUTPUT CONTROL FOR STRESS PERIOD   21   TIME STEP   13
 
 SOLVING FOR HEAD 
                                                   Max.-Head-Change                         Max.-Flux-Residual
  Residual-Control   Outer-Iter.   Inner-Iter.     Column Row Layer    Maximum-Head-Change  Column Row Layer    Maximum-Flux-Residual          L2-NORM 
          0                 1           2             4    7     1      -0.1730501198E+00       4    7    1        -0.9048735565E+01      0.2167236214E+02
          0                 2           2             4    7     1       0.1683281445E-01       4    7    1         0.9048581323E+00      0.2167051397E+01
          0                 3           2             4    7     1      -0.1146254641E-02       4    7    1        -0.6334024259E-01      0.1516905155E+00
          0                 4           1             4    7     1       0.4561053386E-04       4    7    1         0.2590618867E-02      0.6204486879E-02

    ------------------------------------------------
       NWT REQUIRED            4 OUTER ITERATIONS 
       AND A TOTAL OF          7 INNER ITERATIONS.
    ------------------------------------------------

 NO OUTPUT CONTROL FOR STRESS PERIOD   21   TIME STEP   14
 
 SOLVING FOR HEAD 
                                                   Max.-Head-Change                         Max.-Flux-Residual
  Residual-Control   Outer-Iter.   Inner-Iter.     Column Row Layer    Maximum-Head-Change  Column Row Layer    Maximum-Flux-Residual          L2-NORM 
          0                 1           2             5    8     1       0.2860984248E-01       5    8    1         0.1556341058E+01      0.4092726931E+01
          0                 2           2             4   13     1       0.1479238865E-01       4   13    1         0.8790276637E+00      0.1569945076E+01
          0                 3           2             7   13     1      -0.2082117616E-02       7   13    1        -0.1195477429E+00      0.1561339717E+00
          0                 4           1             7   13     1       0.8281092052E-04       7   13    1         0.4887292489E-02      0.6186293526E-02

    ------------------------------------------------
       NWT REQUIRED            4 OUTER ITERATIONS 
       AND A TOTAL OF          7 INNER ITERATIONS.
    ------------------------------------------------

 NO OUTPUT CONTROL FOR STRESS PERIOD   21   TIME STEP   15
 
 SOLVING FOR HEAD 
                                                   Max.-Head-Change                         Max.-Flux-Residual
  Residual-Control   Outer-Iter.   Inner-Iter.     Column Row Layer    Maximum-Head-Change  Column Row Layer    Maximum-Flux-Residual          L2-NORM 
          0                 1           2             5    6     1       0.2737760422E-01       5    8    1         0.1487916256E+01      0.3973403400E+01
          0                 2           2             4   13     1       0.1479395599E-01       4   13    1         0.8791437266E+00      0.1566516433E+01
          0                 3           2             7   13     1      -0.2089163568E-02       7   13    1        -0.1199531223E+00      0.1562640219E+00
          0                 4           1             7   13     1       0.8308982473E-04       7   13    1         0.4903787928E-02      0.6193510102E-02

    ------------------------------------------------
       NWT REQUIRED            4 OUTER ITERATIONS 
       AND A TOTAL OF          7 INNER ITERATIONS.
    ------------------------------------------------

 NO OUTPUT CONTROL FOR STRESS PERIOD   21   TIME STEP   16
 
 SOLVING FOR HEAD 
                                                   Max.-Head-Change                         Max.-Flux-Residual
  Residual-Control   Outer-Iter.   Inner-Iter.     Column Row Layer    Maximum-Head-Change  Column Row Layer    Maximum-Flux-Residual          L2-NORM 
          0                 1           2             5    6     1       0.2625689923E-01       5    6    1         0.1423952932E+01      0.3861490618E+01
          0                 2           2             4   13     1       0.6741744496E-02       4   13    1         0.3991480390E+00      0.7773144357E+00
          0                 3           2             4   13     1      -0.4518528014E-03       4   13    1        -0.2750470838E-01      0.5264984860E-01
          0                 4           1             4   13     1       0.1788617967E-04       4   13    1         0.1119446212E-02      0.2078098175E-02

    ------------------------------------------------
       NWT REQUIRED            4 OUTER ITERATIONS 
       AND A TOTAL OF          7 INNER ITERATIONS.
    ------------------------------------------------

 NO OUTPUT CONTROL FOR STRESS PERIOD   21   TIME STEP   17
 
 SOLVING FOR HEAD 
                                                   Max.-Head-Change                         Max.-Flux-Residual
  Residual-Control   Outer-Iter.   Inner-Iter.     Column Row Layer    Maximum-Head-Change  Column Row Layer    Maximum-Flux-Residual          L2-NORM 
          0                 1           2             5    6     1       0.2520278147E-01       5    6    1         0.1365685104E+01      0.3733462781E+01
          0                 2           2             4   13     1       0.1470725756E-01       4   13    1         0.8740051371E+00      0.1567131620E+01
          0                 3           2             7   13     1      -0.2238213166E-02       7   13    1        -0.1285246754E+00      0.1622602824E+00
          0                 4           1             7   13     1       0.8902309140E-04       7   13    1         0.5254512423E-02      0.6444143542E-02

    ------------------------------------------------
       NWT REQUIRED            4 OUTER ITERATIONS 
       AND A TOTAL OF          7 INNER ITERATIONS.
    ------------------------------------------------

 NO OUTPUT CONTROL FOR STRESS PERIOD   21   TIME STEP   18
 
 SOLVING FOR HEAD 
                                                   Max.-Head-Change                         Max.-Flux-Residual
  Residual-Control   Outer-Iter.   Inner-Iter.     Column Row Layer    Maximum-Head-Change  Column Row Layer    Maximum-Flux-Residual          L2-NORM 
          0                 1           2             5    6     1       0.2421018937E-01       5    6    1         0.1310855837E+01      0.3633393129E+01
          0                 2           2             4   13     1       0.1476020537E-01       4   13    1         0.8771774824E+00      0.1554968187E+01
          0                 3           2             7   13     1      -0.2110851961E-02       7   13    1        -0.1212011103E+00      0.1566306053E+00
          0                 4           1             7   13     1       0.8396183456E-04       7   13    1         0.4955364069E-02      0.6206328098E-02

    ------------------------------------------------
       NWT REQUIRED            4 OUTER ITERATIONS 
       AND A TOTAL OF          7 INNER ITERATIONS.
    ------------------------------------------------

 NO OUTPUT CONTROL FOR STRESS PERIOD   21   TIME STEP   19
 
 SOLVING FOR HEAD 
                                                   Max.-Head-Change                         Max.-Flux-Residual
  Residual-Control   Outer-Iter.   Inner-Iter.     Column Row Layer    Maximum-Head-Change  Column Row Layer    Maximum-Flux-Residual          L2-NORM 
          0                 1           2             5    6     1       0.2327476728E-01       5    6    1         0.1259219041E+01      0.3542109476E+01
          0                 2           2             4   13     1       0.9006283658E-02       4   13    1         0.5339429128E+00      0.9793320051E+00
          0                 3           2             7   13     1      -0.6815200046E-03       7   13    1        -0.3906861342E-01      0.7538869708E-01
          0                 4           1             7   13     1       0.2711728370E-04       7   13    1         0.1597812885E-02      0.2970965345E-02

    ------------------------------------------------
       NWT REQUIRED            4 OUTER ITERATIONS 
       AND A TOTAL OF          7 INNER ITERATIONS.
    ------------------------------------------------

 NO OUTPUT CONTROL FOR STRESS PERIOD   21   TIME STEP   20
 
 SOLVING FOR HEAD 
                                                   Max.-Head-Change                         Max.-Flux-Residual
  Residual-Control   Outer-Iter.   Inner-Iter.     Column Row Layer    Maximum-Head-Change  Column Row Layer    Maximum-Flux-Residual          L2-NORM 
          0                 1           2             5    6     1       0.2239278689E-01       5    6    1         0.1210565274E+01      0.3436883912E+01
          0                 2           2             4   13     1       0.1474063690E-01       4   13    1         0.8760380775E+00      0.1548531034E+01
          0                 3           2             7   13     1      -0.2124782106E-02       7   13    1        -0.1220026826E+00      0.1569209213E+00
          0                 4           1             7   13     1       0.8449905333E-04       7   13    1         0.4987139810E-02      0.6219242042E-02

    ------------------------------------------------
       NWT REQUIRED            4 OUTER ITERATIONS 
       AND A TOTAL OF          7 INNER ITERATIONS.
    ------------------------------------------------

 NO OUTPUT CONTROL FOR STRESS PERIOD   21   TIME STEP   21
 
 SOLVING FOR HEAD 
                                                   Max.-Head-Change                         Max.-Flux-Residual
  Residual-Control   Outer-Iter.   Inner-Iter.     Column Row Layer    Maximum-Head-Change  Column Row Layer    Maximum-Flux-Residual          L2-NORM 
          0                 1           2             5    6     1       0.2156081192E-01       5    6    1         0.1164701094E+01      0.2995957824E+01
          0                 2           2             5    6     1      -0.2097273311E-02       5    6    1        -0.1164697109E+00      0.2991399896E+00
          0                 3           2             5    6     1       0.1428165935E-03       5    6    1         0.8152887057E-02      0.2094692236E-01
          0                 4           1             5    6     1      -0.5682791607E-05       5    6    1        -0.3334535172E-03      0.8610211702E-03

    ------------------------------------------------
       NWT REQUIRED            4 OUTER ITERATIONS 
       AND A TOTAL OF          7 INNER ITERATIONS.
    ------------------------------------------------

 NO OUTPUT CONTROL FOR STRESS PERIOD   21   TIME STEP   22
 
 SOLVING FOR HEAD 
                                                   Max.-Head-Change                         Max.-Flux-Residual
  Residual-Control   Outer-Iter.   Inner-Iter.     Column Row Layer    Maximum-Head-Change  Column Row Layer    Maximum-Flux-Residual          L2-NORM 
          0                 1           2             5    6     1       0.2077539740E-01       5    6    1         0.1121431610E+01      0.2912473517E+01
          0                 2           2             5    6     1      -0.2020874336E-02       5    6    1        -0.1121427930E+00      0.2907811342E+00
          0                 3           2             5    6     1       0.1376141022E-03       5    6    1         0.7850002377E-02      0.2036198230E-01
          0                 4           1             5    6     1      -0.5475779978E-05       5    6    1        -0.3210655234E-03      0.8370904479E-03

    ------------------------------------------------
       NWT REQUIRED            4 OUTER ITERATIONS 
       AND A TOTAL OF          7 INNER ITERATIONS.
    ------------------------------------------------

 NO OUTPUT CONTROL FOR STRESS PERIOD   21   TIME STEP   23
 
 SOLVING FOR HEAD 
                                                   Max.-Head-Change                         Max.-Flux-Residual
  Residual-Control   Outer-Iter.   Inner-Iter.     Column Row Layer    Maximum-Head-Change  Column Row Layer    Maximum-Flux-Residual          L2-NORM 
          0                 1           2             5    7     1       0.2007630213E-01       5    6    1         0.1080561521E+01      0.2833320529E+01
          0                 2           2             5    7     1      -0.1952874562E-02       5    6    1        -0.1080558120E+00      0.2828559713E+00
          0                 3           2             5    7     1       0.1329835395E-03       5    6    1         0.7563913320E-02      0.1980751849E-01
          0                 4           1             5    7     1      -0.5291541049E-05       5    6    1        -0.3093644898E-03      0.8145917501E-03

    ------------------------------------------------
       NWT REQUIRED            4 OUTER ITERATIONS 
       AND A TOTAL OF          7 INNER ITERATIONS.
    ------------------------------------------------

 NO OUTPUT CONTROL FOR STRESS PERIOD   21   TIME STEP   24
 
 SOLVING FOR HEAD 
                                                   Max.-Head-Change                         Max.-Flux-Residual
  Residual-Control   Outer-Iter.   Inner-Iter.     Column Row Layer    Maximum-Head-Change  Column Row Layer    Maximum-Flux-Residual          L2-NORM 
          0                 1           2             5    7     1       0.1967465558E-01       5    7    1         0.1044197750E+01      0.2758196038E+01
          0                 2           2             5    7     1      -0.1913805861E-02       5    7    1        -0.1044196528E+00      0.2753336901E+00
          0                 3           2             5    7     1       0.1303231004E-03       5    7    1         0.7309380008E-02      0.1928117743E-01
          0                 4           1             5    7     1      -0.5185680300E-05       5    7    1        -0.2989540726E-03      0.7931504234E-03

    ------------------------------------------------
       NWT REQUIRED            4 OUTER ITERATIONS 
       AND A TOTAL OF          7 INNER ITERATIONS.
    ------------------------------------------------

 NO OUTPUT CONTROL FOR STRESS PERIOD   21   TIME STEP   25
 
 SOLVING FOR HEAD 
                                                   Max.-Head-Change                         Max.-Flux-Residual
  Residual-Control   Outer-Iter.   Inner-Iter.     Column Row Layer    Maximum-Head-Change  Column Row Layer    Maximum-Flux-Residual          L2-NORM 
          0                 1           2             5    7     1       0.1928108604E-01       5    7    1         0.1023323807E+01      0.2686826181E+01
          0                 2           2             5    7     1      -0.1875522762E-02       5    7    1        -0.1023322929E+00      0.2681868352E+00
          0                 3           2             5    7     1       0.1277161583E-03       5    7    1         0.7163264425E-02      0.1878112619E-01
          0                 4           1             5    7     1      -0.5081947569E-05       5    7    1        -0.2929779332E-03      0.7727700115E-03

    ------------------------------------------------
       NWT REQUIRED            4 OUTER ITERATIONS 
       AND A TOTAL OF          7 INNER ITERATIONS.
    ------------------------------------------------

 NO OUTPUT CONTROL FOR STRESS PERIOD   21   TIME STEP   26
 
 SOLVING FOR HEAD 
                                                   Max.-Head-Change                         Max.-Flux-Residual
  Residual-Control   Outer-Iter.   Inner-Iter.     Column Row Layer    Maximum-Head-Change  Column Row Layer    Maximum-Flux-Residual          L2-NORM 
          0                 1           2             4    7     1       0.1889625384E-01       5    7    1         0.1002835904E+01      0.2618943913E+01
          0                 2           2             4    7     1      -0.1838090611E-02       5    7    1        -0.1002835325E+00      0.2613886275E+00
          0                 3           2             4    7     1       0.1251671524E-03       5    7    1         0.7019850860E-02      0.1830552983E-01
          0                 4           1             4    7     1      -0.4980517850E-05       5    7    1        -0.2871122938E-03      0.7534494144E-03

    ------------------------------------------------
       NWT REQUIRED            4 OUTER ITERATIONS 
       AND A TOTAL OF          7 INNER ITERATIONS.
    ------------------------------------------------

 NO OUTPUT CONTROL FOR STRESS PERIOD   21   TIME STEP   27
 
 SOLVING FOR HEAD 
                                                   Max.-Head-Change                         Max.-Flux-Residual
  Residual-Control   Outer-Iter.   Inner-Iter.     Column Row Layer    Maximum-Head-Change  Column Row Layer    Maximum-Flux-Residual          L2-NORM 
          0                 1           2             4    7     1      -0.1726227833E+00       5    8    1        -0.9071540561E+01      0.2218525180E+02
          0                 2           2             4    7     1       0.1679130821E-01       5    8    1         0.9070893840E+00      0.2218307398E+01
          0                 3           2             4    7     1      -0.1143427614E-02       5    8    1        -0.6349689611E-01      0.1552752616E+00
          0                 4           1             4    7     1       0.4549804625E-04       5    8    1         0.2597023828E-02      0.6350845870E-02

    ------------------------------------------------
       NWT REQUIRED            4 OUTER ITERATIONS 
       AND A TOTAL OF          7 INNER ITERATIONS.
    ------------------------------------------------

 NO OUTPUT CONTROL FOR STRESS PERIOD   21   TIME STEP   28
 
 SOLVING FOR HEAD 
                                                   Max.-Head-Change                         Max.-Flux-Residual
  Residual-Control   Outer-Iter.   Inner-Iter.     Column Row Layer    Maximum-Head-Change  Column Row Layer    Maximum-Flux-Residual          L2-NORM 
          0                 1           2             5    6     1       0.2201727224E-01       5    6    1         0.1189837119E+01      0.3343712698E+01
          0                 2           2             4   13     1       0.1475564186E-01       4   13    1         0.8770459888E+00      0.1544952882E+01
          0                 3           2             7   13     1      -0.2175003875E-02       7   13    1        -0.1248921472E+00      0.1589217453E+00
          0                 4           1             7   13     1       0.8650681490E-04       7   13    1         0.5105872736E-02      0.6304287520E-02

    ------------------------------------------------
       NWT REQUIRED            4 OUTER ITERATIONS 
       AND A TOTAL OF          7 INNER ITERATIONS.
    ------------------------------------------------

 NO OUTPUT CONTROL FOR STRESS PERIOD   21   TIME STEP   29
 
 SOLVING FOR HEAD 
                                                   Max.-Head-Change                         Max.-Flux-Residual
  Residual-Control   Outer-Iter.   Inner-Iter.     Column Row Layer    Maximum-Head-Change  Column Row Layer    Maximum-Flux-Residual          L2-NORM 
          0                 1           2             5    6     1       0.2120732570E-01       5    6    1         0.1145166216E+01      0.3269516667E+01
          0                 2           2             4   13     1       0.1476431143E-01       4   13    1         0.8775772719E+00      0.1543641473E+01
          0                 3           2             7   13     1      -0.2180801656E-02       7   13    1        -0.1252256935E+00      0.1591473385E+00
          0                 4           1             7   13     1       0.8673524165E-04       7   13    1         0.5119380683E-02      0.6346663097E-02

    ------------------------------------------------
       NWT REQUIRED            4 OUTER ITERATIONS 
       AND A TOTAL OF          7 INNER ITERATIONS.
    ------------------------------------------------

 NO OUTPUT CONTROL FOR STRESS PERIOD   21   TIME STEP   30



 STREAM LISTING     PERIOD     21   STEP       30

 LAYER ROW COL. STREAM  RCH.  FLOW INTO     FLOW TO   FLOW OUT OF   OVRLND.     DIRECT     STREAM       STREAM     STREAM     STREAM   STREAMBED  STREAMBED
                SEG.NO.  NO.  STRM. RCH.    AQUIFER    STRM. RCH.    RUNOFF     PRECIP       ET          HEAD       DEPTH      WIDTH   CONDCTNC.   GRADIENT

   1    1    1     1     1    3.7000E+01  2.9351E-01   3.6706E+01  0.000E+00  0.000E+00  0.000E+00  1.09436E+03  1.308E+00  1.514E+01  6.812E-02  1.436E+00
   1    2    2     1     2    3.6706E+01  4.5449E-01   3.6252E+01  0.000E+00  0.000E+00  0.000E+00  1.08936E+03  1.305E+00  1.508E+01  1.056E-01  1.435E+00
   1    3    3     1     3    3.6252E+01  3.8754E-01   3.5864E+01  0.000E+00  0.000E+00  0.000E+00  1.08372E+03  1.302E+00  1.501E+01  9.008E-02  1.434E+00
   1    3    4     1     4    3.5864E+01  3.5682E-01   3.5508E+01  0.000E+00  0.000E+00  0.000E+00  1.07871E+03  1.299E+00  1.495E+01  8.300E-02  1.433E+00
   1    4    5     2     1    3.3508E+01  3.4594E-01   3.3162E+01  0.000E+00  0.000E+00  0.000E+00  1.07337E+03  1.435E+00  1.200E+01  7.800E-02  1.478E+00
   1    5    6     2     2    3.3162E+01  2.6563E-01   3.2896E+01  0.000E+00  0.000E+00  0.000E+00  1.06794E+03  1.427E+00  1.200E+01  6.000E-02  1.476E+00
   1    6    6     2     3    3.2896E+01  2.6522E-01   3.2631E+01  0.000E+00  0.000E+00  0.000E+00  1.06321E+03  1.420E+00  1.200E+01  6.000E-02  1.473E+00
   1    7    6     2     4    3.2631E+01  2.6480E-01   3.2366E+01  0.000E+00  0.000E+00  0.000E+00  1.05849E+03  1.413E+00  1.200E+01  6.000E-02  1.471E+00
   1    8    6     2     5    3.2366E+01  2.6439E-01   3.2102E+01  0.000E+00  0.000E+00  0.000E+00  1.05377E+03  1.406E+00  1.200E+01  6.000E-02  1.469E+00
   1    3    5     3     1    2.0000E+00  2.8252E-01   1.7175E+00  0.000E+00  0.000E+00  0.000E+00  1.07555E+03  1.909E+00  9.636E+00  7.227E-02  1.955E+00
   1    3    6     3     2    1.7175E+00  2.4905E-01   1.4684E+00  0.000E+00  0.000E+00  0.000E+00  1.07264E+03  1.727E+00  8.909E+00  6.682E-02  1.864E+00
   1    3    7     3     3    1.4684E+00  1.9718E-01   1.2712E+00  0.000E+00  0.000E+00  0.000E+00  1.06987E+03  1.555E+00  8.218E+00  5.547E-02  1.777E+00
   1    4    8     3     4    1.2712E+00  2.2567E-01   1.0456E+00  0.000E+00  0.000E+00  0.000E+00  1.06682E+03  1.364E+00  7.455E+00  6.709E-02  1.682E+00
   1    5    8     3     5    1.0456E+00  1.5790E-01   8.8768E-01  0.000E+00  0.000E+00  0.000E+00  1.06362E+03  1.164E+00  6.655E+00  4.991E-02  1.582E+00
   1    6    8     3     6    8.8768E-01  5.5980E-02   8.3170E-01  0.000E+00  0.000E+00  0.000E+00  1.06158E+03  1.036E+00  6.145E+00  1.844E-02  1.518E+00
   1    5   10     4     1    1.0000E+01  9.0919E-02   9.9091E+00  0.000E+00  0.000E+00  0.000E+00  1.07836E+03  6.368E-01  1.000E+01  2.500E-02  1.212E+00
   1    5    9     4     2    9.9091E+00  1.8158E-01   9.7275E+00  0.000E+00  0.000E+00  0.000E+00  1.07154E+03  6.315E-01  1.000E+01  5.000E-02  1.211E+00
   1    6    8     4     3    9.7275E+00  1.2689E-01   9.6006E+00  0.000E+00  0.000E+00  0.000E+00  1.06381E+03  6.256E-01  1.000E+01  3.500E-02  1.209E+00
   1    6    8     5     1    1.0432E+01  2.2686E-01   1.0205E+01  0.000E+00  0.000E+00  0.000E+00  1.05868E+03  6.790E-01  1.542E+01  6.166E-02  1.226E+00
   1    7    7     5     2    1.0205E+01  2.7894E-01   9.9265E+00  0.000E+00  0.000E+00  0.000E+00  1.05417E+03  6.732E-01  1.519E+01  7.594E-02  1.224E+00
   1    8    7     5     3    9.9265E+00  1.9221E-01   9.7343E+00  0.000E+00  0.000E+00  0.000E+00  1.04992E+03  6.676E-01  1.497E+01  5.241E-02  1.223E+00
   1    8    6     5     4    9.7343E+00  1.3577E-01   9.5985E+00  0.000E+00  0.000E+00  0.000E+00  1.04691E+03  6.637E-01  1.482E+01  3.706E-02  1.221E+00
   1    9    6     6     1    4.1700E+01  2.7939E-01   4.1421E+01  0.000E+00  0.000E+00  0.000E+00  1.04438E+03  1.656E+00  1.200E+01  6.000E-02  1.552E+00
   1   10    7     6     2    4.1421E+01  2.7899E-01   4.1142E+01  0.000E+00  0.000E+00  0.000E+00  1.03983E+03  1.650E+00  1.200E+01  6.000E-02  1.550E+00
   1   11    7     6     3    4.1142E+01  2.7858E-01   4.0863E+01  0.000E+00  0.000E+00  0.000E+00  1.03528E+03  1.643E+00  1.200E+01  6.000E-02  1.548E+00
   1   12    7     6     4    4.0863E+01  2.7818E-01   4.0585E+01  0.000E+00  0.000E+00  0.000E+00  1.03073E+03  1.636E+00  1.200E+01  6.000E-02  1.545E+00
   1   13    7     6     5    4.0585E+01  1.2835E-02   4.0572E+01  0.000E+00  0.000E+00  0.000E+00  1.02754E+03  1.633E+00  1.200E+01  2.400E-02  1.783E-01
   1   14    9     7     1    1.5000E+02  1.3326E+00   1.4867E+02  0.000E+00  0.000E+00  0.000E+00  1.03987E+03  2.288E+00  5.529E+01  5.593E-01  7.942E-01
   1   13    8     7     2    1.4867E+02  1.8296E+00   1.4684E+02  0.000E+00  0.000E+00  0.000E+00  1.03478E+03  2.279E+00  5.526E+01  6.148E-01  9.920E-01
   1   13    7     7     3    1.4684E+02  1.4981E+00   1.4534E+02  0.000E+00  0.000E+00  0.000E+00  1.02969E+03  2.270E+00  5.522E+01  5.585E-01  8.942E-01
   1   13    6     8     1    1.8591E+02  1.0744E+00   1.8484E+02  0.000E+00  0.000E+00  0.000E+00  1.02492E+03  3.050E+00  4.422E+01  4.506E-01  7.948E-01
   1   13    5     8     2    1.8484E+02  4.3467E-01   1.8440E+02  0.000E+00  0.000E+00  0.000E+00  1.01867E+03  3.045E+00  4.415E+01  4.499E-01  3.220E-01
   1   13    4     8     3    1.8440E+02 -8.7978E-01   1.8528E+02  0.000E+00  0.000E+00  0.000E+00  1.01242E+03  3.046E+00  4.417E+01  4.501E+00 -6.515E-02
   1   13    3     8     4    1.8528E+02 -2.1673E+00   1.8745E+02  0.000E+00  0.000E+00  0.000E+00  1.00618E+03  3.056E+00  4.431E+01  4.515E+00 -1.600E-01
   1   13    2     8     5    1.8745E+02 -1.6486E+00   1.8910E+02  0.000E+00  0.000E+00  0.000E+00  9.99942E+02  3.067E+00  4.448E+01  4.532E+00 -1.212E-01
   1   13    1     8     6    1.8910E+02 -6.6315E-01   1.8976E+02  0.000E+00  0.000E+00  0.000E+00  9.94949E+02  3.074E+00  4.458E+01  2.726E+00 -8.110E-02
   1    8    6     9     1    0.0000E+00  0.0000E+00   0.0000E+00  0.000E+00  0.000E+00  0.000E+00  1.07875E+03  0.000E+00  4.000E+00  0.000E+00  1.000E+00
   1    8    5     9     2    0.0000E+00  0.0000E+00   0.0000E+00  0.000E+00  0.000E+00  0.000E+00  1.07825E+03  0.000E+00  4.000E+00  0.000E+00  1.000E+00





UNSATURATED ZONE PACKAGE VOLUMETRIC BUDGET FOR  TIME STEP    30 STRESS PERIOD   21
  ------------------------------------------------------------------------------



     CUMULATIVE VOLUMES      L**3       RATES FOR THIS TIME STEP      L**3/T
     ------------------                 ------------------------

           IN:                                      IN:
           ---                                      ---
        INFILTRATION =   334836356.1568          INFILTRATION =           0.8475

          OUT:                                     OUT:
          ----                                     ----
              UZF ET =   187133634.3239                UZF ET =          13.3549
        UZF RECHARGE =    12565744.6439          UZF RECHARGE =           0.0773

            IN - OUT =   135136977.1890              IN - OUT =         -12.5847

          STORAGE:                                 STORAGE:
          --------                                 --------
      STORAGE CHANGE =   135286198.1132        STORAGE CHANGE =         -12.5847

 PERCENT DISCREPANCY IS DIFFERENCE BETWEEN IN-OUT MINUS CHANGE IN STORAGE
 DIVIDED BY THE AVERAGE OF IN AND OUT TIMES 100

 PERCENT DISCREPANCY =          -0.01     PERCENT DISCREPANCY =           0.00






1
  VOLUMETRIC BUDGET FOR ENTIRE MODEL AT END OF TIME STEP   30, STRESS PERIOD  21
  ------------------------------------------------------------------------------

     CUMULATIVE VOLUMES      L**3       RATES FOR THIS TIME STEP      L**3/T
     ------------------                 ------------------------

           IN:                                      IN:
           ---                                      ---
               AWU WELLS =   168013232.0000                 AWU WELLS =           0.0000
      DIVERSION SEGMENTS =   122203952.0000        DIVERSION SEGMENTS =           0.0000
           GW IRRIGATION =           0.0000             GW IRRIGATION =           0.0000
           SW IRRIGATION =           0.0000             SW IRRIGATION =           0.0000
        SYSTEM LOSSES GW =           0.0000          SYSTEM LOSSES GW =           0.0000
        SYSTEM LOSSES SW =           0.0000          SYSTEM LOSSES SW =           0.0000

                TOTAL IN =   290217184.0000                  TOTAL IN =           0.0000

          OUT:                                     OUT:
          ----                                     ----
               AWU WELLS =           0.0000                 AWU WELLS =           0.0000
      DIVERSION SEGMENTS =           0.0000        DIVERSION SEGMENTS =           0.0000
           GW IRRIGATION =   168013232.0000             GW IRRIGATION =           0.0000
           SW IRRIGATION =   122206384.0000             SW IRRIGATION =           0.0000
        SYSTEM LOSSES GW =           0.0000          SYSTEM LOSSES GW =           0.0000
        SYSTEM LOSSES SW =           0.0000          SYSTEM LOSSES SW =           0.0000

               TOTAL OUT =   290219616.0000                 TOTAL OUT =           0.0000

                IN - OUT =       -2432.0000                  IN - OUT =           0.0000

     PERCENT DISCREPANCY =          -0.00         PERCENT DISCREPANCY =           0.00



1
  VOLUMETRIC BUDGET FOR ENTIRE MODEL AT END OF TIME STEP   30, STRESS PERIOD  21
  ------------------------------------------------------------------------------

     CUMULATIVE VOLUMES      L**3       RATES FOR THIS TIME STEP      L**3/T
     ------------------                 ------------------------

           IN:                                      IN:
           ---                                      ---
             STORAGE     =   300919680.0000               STORAGE     =           7.3836
       CONSTANT HEAD     =           0.0000         CONSTANT HEAD     =           0.0000
     HEAD DEP BOUNDS     =    15038257.0000       HEAD DEP BOUNDS     =           0.2855
      STREAM LEAKAGE     =   666841920.0000        STREAM LEAKAGE     =          12.5972
        UZF RECHARGE     =    12565740.0000          UZF RECHARGE     =       7.7326E-02
               GW ET     =           0.0000                 GW ET     =           0.0000
     SURFACE LEAKAGE     =           0.0000       SURFACE LEAKAGE     =           0.0000
           AWU WELLS     =           0.0000             AWU WELLS     =           0.0000

                TOTAL IN =   995365632.0000                  TOTAL IN =          20.3436

          OUT:                                     OUT:
          ----                                     ----
             STORAGE     =   211225952.0000               STORAGE     =           6.8460
       CONSTANT HEAD     =           0.0000         CONSTANT HEAD     =           0.0000
     HEAD DEP BOUNDS     =    15262244.0000       HEAD DEP BOUNDS     =           0.2733
      STREAM LEAKAGE     =   496572064.0000        STREAM LEAKAGE     =           5.3588
        UZF RECHARGE     =           0.0000          UZF RECHARGE     =           0.0000
               GW ET     =   104301400.0000                 GW ET     =           7.8657
     SURFACE LEAKAGE     =           0.0000       SURFACE LEAKAGE     =           0.0000
           AWU WELLS     =   168013232.0000             AWU WELLS     =           0.0000

               TOTAL OUT =   995374848.0000                 TOTAL OUT =          20.3438

                IN - OUT =       -9216.0000                  IN - OUT =      -1.6594E-04

     PERCENT DISCREPANCY =          -0.00         PERCENT DISCREPANCY =          -0.00






         TIME SUMMARY AT END OF TIME STEP   30 IN STRESS PERIOD   21
                    SECONDS     MINUTES      HOURS       DAYS        YEARS
                    -----------------------------------------------------------
   TIME STEP LENGTH  87600.      1460.0      24.333      1.0139     2.77588E-03
 STRESS PERIOD TIME 2.62800E+06  43800.      730.00      30.417     8.32763E-02
         TOTAL TIME 5.26464E+07 8.77440E+05  14624.      609.33      1.6683    
1
1
                            STRESS PERIOD NO.   22, LENGTH =   2628000.    
                            -----------------------------------------------

                              NUMBER OF TIME STEPS =    30

                               MULTIPLIER FOR DELT =     1.000

                            INITIAL TIME STEP SIZE =   87600.00    

 REUSING NON-PARAMETER GHB CELLS FROM LAST STRESS PERIOD

      2 GHB CELLS

 REUSING STREAM SEGMENT DATA FROM LAST STRESS PERIOD



            AREAL INFILTRATION RATE
 READING ON UNIT   19 WITH FORMAT: (10F4.0)            

            1           2           3           4           5           6           7           8           9          10
 ........................................................................................................................
   1   1.0000E-10  2.0000E-10   0.000       0.000       0.000       0.000       0.000       0.000       0.000       0.000    
   2   2.0000E-10  1.0000E-10  2.0000E-10   0.000       0.000      8.0000E-10  8.0000E-10  5.0000E-10   0.000       0.000    
   3    0.000      5.0000E-10  1.0000E-10  1.0000E-10  8.0000E-10  8.0000E-10  5.0000E-10  5.0000E-10   0.000       0.000    
   4   8.0000E-10  5.0000E-10  1.0000E-10  1.0000E-10  1.0000E-10  1.0000E-10  1.0000E-10  1.0000E-10  2.0000E-10   0.000    
   5   8.0000E-10  5.0000E-10  1.0000E-10  1.0000E-10  1.0000E-10  1.0000E-10  1.0000E-10  1.0000E-10  1.0000E-10  1.0000E-10
   6   8.0000E-10  5.0000E-10  5.0000E-10  2.0000E-10  2.0000E-10  1.0000E-10  1.0000E-10  1.0000E-10  1.0000E-10  5.0000E-10
   7   8.0000E-10  5.0000E-10  5.0000E-10  2.0000E-10  2.0000E-10  1.0000E-10  1.0000E-10  2.0000E-10  2.0000E-10   0.000    
   8    0.000      5.0000E-10  5.0000E-10  2.0000E-10  2.0000E-10  1.0000E-10  1.0000E-10  2.0000E-10  5.0000E-10   0.000    
   9    0.000      5.0000E-10  5.0000E-10  2.0000E-10  2.0000E-10  1.0000E-10  1.0000E-10  2.0000E-10  5.0000E-10   0.000    
  10    0.000      5.0000E-10  5.0000E-10  2.0000E-10  2.0000E-10  1.0000E-10  1.0000E-10  2.0000E-10  5.0000E-10  8.0000E-10
  11    0.000      1.0000E-10  1.0000E-10  1.0000E-10  1.0000E-10  1.0000E-10  1.0000E-10  2.0000E-10  5.0000E-10   0.000    
  12   1.0000E-10  1.0000E-10  1.0000E-10  1.0000E-10  1.0000E-10  1.0000E-10  1.0000E-10  1.0000E-10  2.0000E-10   0.000    
  13   1.0000E-10  1.0000E-10  2.0000E-10  2.0000E-10  2.0000E-10  2.0000E-10  2.0000E-10  1.0000E-10  1.0000E-10   0.000    
  14    0.000      2.0000E-10  5.0000E-10  5.0000E-10  5.0000E-10  5.0000E-10  5.0000E-10  2.0000E-10  1.0000E-10   0.000    
  15    0.000       0.000      8.0000E-10  8.0000E-10  8.0000E-10  8.0000E-10   0.000       0.000       0.000       0.000    

                  ET RATE =  2.500000E-08

 USING ET EXTINCTION DEPTH FROM PREVIOUS STRESS PERIOD. CURRENT PERIOD IS:      22

 USING EXTINCTION WATER CONTENT FROM PREVIOUS STRESS PERIOD. CURRENT PERIOD IS:      22

 PROCESSING AWU STRESS PERIOD DATA

 READING AWU STRESS PERIOD DATA

 READING IRRIGATION STREAM

 READING IRRIGATION WELL

 READING SUPPLEMENTAL WEL

 END PROCESSING AWU STRESS PERIOD DATA OPTIONS
 
 SOLVING FOR HEAD 
                                                   Max.-Head-Change                         Max.-Flux-Residual
  Residual-Control   Outer-Iter.   Inner-Iter.     Column Row Layer    Maximum-Head-Change  Column Row Layer    Maximum-Flux-Residual          L2-NORM 
          0                 1           2             5    6     1       0.2044096468E-01       5    6    1         0.1103039773E+01      0.3047881576E+01
          0                 2           2             4   13     1       0.1104704190E-01       4   13    1         0.6362908782E+00      0.1145196038E+01
          0                 3           2             7   13     1      -0.1824895085E-02       7   13    1        -0.1014353817E+00      0.1390812199E+00
          0                 4           2             7   13     1       0.1242339090E-03       7   13    1         0.7103120815E-02      0.9207205510E-02
          0                 5           1             7   13     1      -0.4942594358E-05       7   13    1        -0.2906511536E-03      0.3632540000E-03

    ------------------------------------------------
       NWT REQUIRED            5 OUTER ITERATIONS 
       AND A TOTAL OF          9 INNER ITERATIONS.
    ------------------------------------------------

 NO OUTPUT CONTROL FOR STRESS PERIOD   22   TIME STEP    1
 
 SOLVING FOR HEAD 
                                                   Max.-Head-Change                         Max.-Flux-Residual
  Residual-Control   Outer-Iter.   Inner-Iter.     Column Row Layer    Maximum-Head-Change  Column Row Layer    Maximum-Flux-Residual          L2-NORM 
          0                 1           2             5    7     1       0.1977211564E-01       5    6    1         0.1063191342E+01      0.2943876677E+01
          0                 2           2             2   13     1       0.6955192162E-02       2   13    1         0.4037760298E+00      0.7463753247E+00
          0                 3           2             7   13     1      -0.6817406106E-03       4   13    1        -0.3838176251E-01      0.7261343542E-01
          0                 4           1             7   13     1       0.4641206998E-04       7   13    1         0.2651866187E-02      0.4585689438E-02

    ------------------------------------------------
       NWT REQUIRED            4 OUTER ITERATIONS 
       AND A TOTAL OF          7 INNER ITERATIONS.
    ------------------------------------------------

 NO OUTPUT CONTROL FOR STRESS PERIOD   22   TIME STEP    2
 
 SOLVING FOR HEAD 
                                                   Max.-Head-Change                         Max.-Flux-Residual
  Residual-Control   Outer-Iter.   Inner-Iter.     Column Row Layer    Maximum-Head-Change  Column Row Layer    Maximum-Flux-Residual          L2-NORM 
          0                 1           2             5    7     1       0.1938688883E-01       5    7    1         0.1028380988E+01      0.2846942006E+01
          0                 2           2             4   13     1       0.8164926963E-02       4   13    1         0.4699570705E+00      0.8613303585E+00
          0                 3           2             7   13     1      -0.1017648929E-02       7   13    1        -0.5653554723E-01      0.9142107850E-01
          0                 4           1             7   13     1       0.6927606914E-04       7   13    1         0.3959673551E-02      0.5911151953E-02

    ------------------------------------------------
       NWT REQUIRED            4 OUTER ITERATIONS 
       AND A TOTAL OF          7 INNER ITERATIONS.
    ------------------------------------------------

 NO OUTPUT CONTROL FOR STRESS PERIOD   22   TIME STEP    3
 
 SOLVING FOR HEAD 
                                                   Max.-Head-Change                         Max.-Flux-Residual
  Residual-Control   Outer-Iter.   Inner-Iter.     Column Row Layer    Maximum-Head-Change  Column Row Layer    Maximum-Flux-Residual          L2-NORM 
          0                 1           2             4    7     1       0.1911995565E-01       5    7    1         0.1008342556E+01      0.2756896512E+01
          0                 2           2             4   13     1       0.8240099796E-02       4   13    1         0.4742675093E+00      0.8644502604E+00
          0                 3           2             7   13     1      -0.1014427215E-02       7   13    1        -0.5635649265E-01      0.9168187060E-01
          0                 4           1             7   13     1       0.6905828452E-04       7   13    1         0.3947218715E-02      0.5934713711E-02

    ------------------------------------------------
       NWT REQUIRED            4 OUTER ITERATIONS 
       AND A TOTAL OF          7 INNER ITERATIONS.
    ------------------------------------------------

 NO OUTPUT CONTROL FOR STRESS PERIOD   22   TIME STEP    4
 
 SOLVING FOR HEAD 
                                                   Max.-Head-Change                         Max.-Flux-Residual
  Residual-Control   Outer-Iter.   Inner-Iter.     Column Row Layer    Maximum-Head-Change  Column Row Layer    Maximum-Flux-Residual          L2-NORM 
          0                 1           2             4    7     1       0.1898306902E-01       4    7    1         0.9942086311E+00      0.2674341631E+01
          0                 2           2             4   13     1       0.8308022868E-02       4   13    1         0.4781600961E+00      0.8673387418E+00
          0                 3           2             7   13     1      -0.1011338499E-02       7   13    1        -0.5618481465E-01      0.9191787074E-01
          0                 4           1             7   13     1       0.6884743633E-04       7   13    1         0.3935165716E-02      0.5954561278E-02

    ------------------------------------------------
       NWT REQUIRED            4 OUTER ITERATIONS 
       AND A TOTAL OF          7 INNER ITERATIONS.
    ------------------------------------------------

 NO OUTPUT CONTROL FOR STRESS PERIOD   22   TIME STEP    5
 
 SOLVING FOR HEAD 
                                                   Max.-Head-Change                         Max.-Flux-Residual
  Residual-Control   Outer-Iter.   Inner-Iter.     Column Row Layer    Maximum-Head-Change  Column Row Layer    Maximum-Flux-Residual          L2-NORM 
          0                 1           2             4    7     1       0.1883695438E-01       4    7    1         0.9870910414E+00      0.2786571067E+01
          0                 2           2             4    7     1      -0.1832323420E-02       4    7    1        -0.9870919303E-01      0.2776130314E+00
          0                 3           2             4    7     1       0.1247744182E-03       4    7    1         0.6909645656E-02      0.1984794234E-01
          0                 4           1             4    7     1      -0.4964891121E-05       4    7    1        -0.2826049081E-03      0.8077213905E-03

    ------------------------------------------------
       NWT REQUIRED            4 OUTER ITERATIONS 
       AND A TOTAL OF          7 INNER ITERATIONS.
    ------------------------------------------------

 NO OUTPUT CONTROL FOR STRESS PERIOD   22   TIME STEP    6
 
 SOLVING FOR HEAD 
                                                   Max.-Head-Change                         Max.-Flux-Residual
  Residual-Control   Outer-Iter.   Inner-Iter.     Column Row Layer    Maximum-Head-Change  Column Row Layer    Maximum-Flux-Residual          L2-NORM 
          0                 1           2             4    7     1       0.1868279375E-01       4    7    1         0.9795093867E+00      0.2698068185E+01
          0                 2           2             4    7     1      -0.1817328172E-02       4    7    1        -0.9795105351E-01      0.2684761679E+00
          0                 3           2             4    7     1       0.1237532937E-03       4    7    1         0.6856575623E-02      0.1871026713E-01
          0                 4           1             4   13     1      -0.3335643589E-04       4   13    1        -0.2102190266E-02      0.2227832387E-02

    ------------------------------------------------
       NWT REQUIRED            4 OUTER ITERATIONS 
       AND A TOTAL OF          7 INNER ITERATIONS.
    ------------------------------------------------

 NO OUTPUT CONTROL FOR STRESS PERIOD   22   TIME STEP    7
 
 SOLVING FOR HEAD 
                                                   Max.-Head-Change                         Max.-Flux-Residual
  Residual-Control   Outer-Iter.   Inner-Iter.     Column Row Layer    Maximum-Head-Change  Column Row Layer    Maximum-Flux-Residual          L2-NORM 
          0                 1           2             4    7     1       0.1852088524E-01       4    7    1         0.9714806965E+00      0.2615488647E+01
          0                 2           2             4    7     1      -0.1801579223E-02       4    7    1        -0.9714820746E-01      0.2603249075E+00
          0                 3           2             4    7     1       0.1226808455E-03       4    7    1         0.6800376162E-02      0.1815025710E-01
          0                 4           1             4    7     1      -0.4881585480E-05       4    7    1        -0.2781357753E-03      0.7415814976E-03

    ------------------------------------------------
       NWT REQUIRED            4 OUTER ITERATIONS 
       AND A TOTAL OF          7 INNER ITERATIONS.
    ------------------------------------------------

 NO OUTPUT CONTROL FOR STRESS PERIOD   22   TIME STEP    8
 
 SOLVING FOR HEAD 
                                                   Max.-Head-Change                         Max.-Flux-Residual
  Residual-Control   Outer-Iter.   Inner-Iter.     Column Row Layer    Maximum-Head-Change  Column Row Layer    Maximum-Flux-Residual          L2-NORM 
          0                 1           2             4    7     1       0.1835231553E-01       4    7    1         0.9630647542E+00      0.2538225678E+01
          0                 2           2             4    7     1      -0.1785182280E-02       4    7    1        -0.9630663351E-01      0.2526927918E+00
          0                 3           2             4    7     1       0.1215642716E-03       4    7    1         0.6741465773E-02      0.1762498468E-01
          0                 4           1             4    7     1      -0.4837156127E-05       4    7    1        -0.2757263405E-03      0.7208578071E-03

    ------------------------------------------------
       NWT REQUIRED            4 OUTER ITERATIONS 
       AND A TOTAL OF          7 INNER ITERATIONS.
    ------------------------------------------------

 NO OUTPUT CONTROL FOR STRESS PERIOD   22   TIME STEP    9
 
 SOLVING FOR HEAD 
                                                   Max.-Head-Change                         Max.-Flux-Residual
  Residual-Control   Outer-Iter.   Inner-Iter.     Column Row Layer    Maximum-Head-Change  Column Row Layer    Maximum-Flux-Residual          L2-NORM 
          0                 1           2             4    7     1       0.1817756021E-01       4    7    1         0.9542883932E+00      0.2465753571E+01
          0                 2           2             4    7     1      -0.1768183610E-02       4    7    1        -0.9542901520E-01      0.2455292230E+00
          0                 3           2             4    7     1       0.1204067228E-03       4    7    1         0.6680032282E-02      0.1713250625E-01
          0                 4           1             4    7     1      -0.4791096567E-05       4    7    1        -0.2732137232E-03      0.7014561619E-03

    ------------------------------------------------
       NWT REQUIRED            4 OUTER ITERATIONS 
       AND A TOTAL OF          7 INNER ITERATIONS.
    ------------------------------------------------

 NO OUTPUT CONTROL FOR STRESS PERIOD   22   TIME STEP   10
 
 SOLVING FOR HEAD 
                                                   Max.-Head-Change                         Max.-Flux-Residual
  Residual-Control   Outer-Iter.   Inner-Iter.     Column Row Layer    Maximum-Head-Change  Column Row Layer    Maximum-Flux-Residual          L2-NORM 
          0                 1           2             4    7     1       0.1799787894E-01       4    7    1         0.9452206227E+00      0.2397642689E+01
          0                 2           2             4    7     1      -0.1750705746E-02       4    7    1        -0.9452225369E-01      0.2387913306E+00
          0                 3           2             4    7     1       0.1192165424E-03       4    7    1         0.6616558792E-02      0.1666844972E-01
          0                 4           1             4    7     1      -0.4743737908E-05       4    7    1        -0.2706176374E-03      0.6829739592E-03

    ------------------------------------------------
       NWT REQUIRED            4 OUTER ITERATIONS 
       AND A TOTAL OF          7 INNER ITERATIONS.
    ------------------------------------------------

 NO OUTPUT CONTROL FOR STRESS PERIOD   22   TIME STEP   11
 
 SOLVING FOR HEAD 
                                                   Max.-Head-Change                         Max.-Flux-Residual
  Residual-Control   Outer-Iter.   Inner-Iter.     Column Row Layer    Maximum-Head-Change  Column Row Layer    Maximum-Flux-Residual          L2-NORM 
          0                 1           2             4    7     1       0.1781336436E-01       4    7    1         0.9358676951E+00      0.2247889279E+01
          0                 2           2             2   13     1       0.3294969859E-02       4   13    1         0.1937866113E+00      0.3987058884E+00
          0                 3           2             4   13     1      -0.2204639398E-03       4   13    1        -0.1340212516E-01      0.2771185378E-01
          0                 4           1             4   13     1       0.8587794604E-05       4   13    1         0.5368062693E-03      0.1153886128E-02

    ------------------------------------------------
       NWT REQUIRED            4 OUTER ITERATIONS 
       AND A TOTAL OF          7 INNER ITERATIONS.
    ------------------------------------------------

 NO OUTPUT CONTROL FOR STRESS PERIOD   22   TIME STEP   12
 
 SOLVING FOR HEAD 
                                                   Max.-Head-Change                         Max.-Flux-Residual
  Residual-Control   Outer-Iter.   Inner-Iter.     Column Row Layer    Maximum-Head-Change  Column Row Layer    Maximum-Flux-Residual          L2-NORM 
          0                 1           2             4    7     1       0.1762490826E-01       4    7    1         0.9262787551E+00      0.2198788139E+01
          0                 2           2             4   13     1       0.8352151077E-02       4   13    1         0.4940294835E+00      0.8914162345E+00
          0                 3           2             7   13     1      -0.1064702243E-02       7   13    1        -0.6081274125E-01      0.8491106882E-01
          0                 4           1             7   13     1       0.4234611147E-04       7   13    1         0.2486139765E-02      0.3567541126E-02

    ------------------------------------------------
       NWT REQUIRED            4 OUTER ITERATIONS 
       AND A TOTAL OF          7 INNER ITERATIONS.
    ------------------------------------------------

 NO OUTPUT CONTROL FOR STRESS PERIOD   22   TIME STEP   13
 
 SOLVING FOR HEAD 
                                                   Max.-Head-Change                         Max.-Flux-Residual
  Residual-Control   Outer-Iter.   Inner-Iter.     Column Row Layer    Maximum-Head-Change  Column Row Layer    Maximum-Flux-Residual          L2-NORM 
          0                 1           2             4    7     1       0.1743280851E-01       4    7    1         0.9164705163E+00      0.2154760217E+01
          0                 2           2             4   13     1       0.8426453881E-02       4   13    1         0.4984089966E+00      0.8828385584E+00
          0                 3           2             7   13     1      -0.9917620911E-03       7   13    1        -0.5509667949E-01      0.8127902884E-01
          0                 4           1             7   13     1       0.6751486286E-04       7   13    1         0.3858968280E-02      0.4643185099E-02

    ------------------------------------------------
       NWT REQUIRED            4 OUTER ITERATIONS 
       AND A TOTAL OF          7 INNER ITERATIONS.
    ------------------------------------------------

 NO OUTPUT CONTROL FOR STRESS PERIOD   22   TIME STEP   14
 
 SOLVING FOR HEAD 
                                                   Max.-Head-Change                         Max.-Flux-Residual
  Residual-Control   Outer-Iter.   Inner-Iter.     Column Row Layer    Maximum-Head-Change  Column Row Layer    Maximum-Flux-Residual          L2-NORM 
          0                 1           2             4    7     1       0.1723786950E-01       4    7    1         0.9064879845E+00      0.2114378514E+01
          0                 2           2             4   13     1       0.8454255198E-02       4   13    1         0.5000398421E+00      0.8842928650E+00
          0                 3           2             7   13     1      -0.9896796923E-03       7   13    1        -0.5498087003E-01      0.8129523364E-01
          0                 4           1             7   13     1       0.6737283120E-04       7   13    1         0.3850844275E-02      0.4641177009E-02

    ------------------------------------------------
       NWT REQUIRED            4 OUTER ITERATIONS 
       AND A TOTAL OF          7 INNER ITERATIONS.
    ------------------------------------------------

 NO OUTPUT CONTROL FOR STRESS PERIOD   22   TIME STEP   15
 
 SOLVING FOR HEAD 
                                                   Max.-Head-Change                         Max.-Flux-Residual
  Residual-Control   Outer-Iter.   Inner-Iter.     Column Row Layer    Maximum-Head-Change  Column Row Layer    Maximum-Flux-Residual          L2-NORM 
          0                 1           2             4    7     1       0.1704030861E-01       4    7    1         0.8963433463E+00      0.2076336353E+01
          0                 2           2             4   13     1       0.8479439278E-02       4   13    1         0.5015159634E+00      0.8856242185E+00
          0                 3           2             7   13     1      -0.9876888265E-03       7   13    1        -0.5487014463E-01      0.8130769517E-01
          0                 4           1             7   13     1       0.6723907578E-04       7   13    1         0.3843193879E-02      0.4639590092E-02

    ------------------------------------------------
       NWT REQUIRED            4 OUTER ITERATIONS 
       AND A TOTAL OF          7 INNER ITERATIONS.
    ------------------------------------------------

 NO OUTPUT CONTROL FOR STRESS PERIOD   22   TIME STEP   16
 
 SOLVING FOR HEAD 
                                                   Max.-Head-Change                         Max.-Flux-Residual
  Residual-Control   Outer-Iter.   Inner-Iter.     Column Row Layer    Maximum-Head-Change  Column Row Layer    Maximum-Flux-Residual          L2-NORM 
          0                 1           2             4    7     1       0.1684086606E-01       4    7    1         0.8860774409E+00      0.2040419136E+01
          0                 2           2             4   13     1       0.8502263059E-02       4   13    1         0.5028526497E+00      0.8868391452E+00
          0                 3           2             7   13     1      -0.9857709165E-03       7   13    1        -0.5476347052E-01      0.8131731020E-01
          0                 4           1             7   13     1       0.6710819025E-04       7   13    1         0.3835708083E-02      0.4638044298E-02

    ------------------------------------------------
       NWT REQUIRED            4 OUTER ITERATIONS 
       AND A TOTAL OF          7 INNER ITERATIONS.
    ------------------------------------------------

 NO OUTPUT CONTROL FOR STRESS PERIOD   22   TIME STEP   17
 
 SOLVING FOR HEAD 
                                                   Max.-Head-Change                         Max.-Flux-Residual
  Residual-Control   Outer-Iter.   Inner-Iter.     Column Row Layer    Maximum-Head-Change  Column Row Layer    Maximum-Flux-Residual          L2-NORM 
          0                 1           2             4    7     1       0.1663968184E-01       4    7    1         0.8756991166E+00      0.2006412172E+01
          0                 2           2             4   13     1       0.8522955246E-02       4   13    1         0.5040634336E+00      0.8879484674E+00
          0                 3           2             7   13     1      -0.9839350983E-03       7   13    1        -0.5466135185E-01      0.8132443943E-01
          0                 4           1             7   13     1       0.6697233553E-04       7   13    1         0.3827936825E-02      0.4635708231E-02

    ------------------------------------------------
       NWT REQUIRED            4 OUTER ITERATIONS 
       AND A TOTAL OF          7 INNER ITERATIONS.
    ------------------------------------------------

 NO OUTPUT CONTROL FOR STRESS PERIOD   22   TIME STEP   18
 
 SOLVING FOR HEAD 
                                                   Max.-Head-Change                         Max.-Flux-Residual
  Residual-Control   Outer-Iter.   Inner-Iter.     Column Row Layer    Maximum-Head-Change  Column Row Layer    Maximum-Flux-Residual          L2-NORM 
          0                 1           2             4    7     1       0.1643742877E-01       4    7    1         0.8652451987E+00      0.1974143022E+01
          0                 2           2             4   13     1       0.8541750384E-02       4   13    1         0.5051622722E+00      0.8889622079E+00
          0                 3           2             7   13     1      -0.9821704592E-03       7   13    1        -0.5456318806E-01      0.8132833249E-01
          0                 4           1             7   13     1       0.6686265380E-04       7   13    1         0.3821663394E-02      0.4634357878E-02

    ------------------------------------------------
       NWT REQUIRED            4 OUTER ITERATIONS 
       AND A TOTAL OF          7 INNER ITERATIONS.
    ------------------------------------------------

 NO OUTPUT CONTROL FOR STRESS PERIOD   22   TIME STEP   19
 
 SOLVING FOR HEAD 
                                                   Max.-Head-Change                         Max.-Flux-Residual
  Residual-Control   Outer-Iter.   Inner-Iter.     Column Row Layer    Maximum-Head-Change  Column Row Layer    Maximum-Flux-Residual          L2-NORM 
          0                 1           2             4    7     1       0.1623446011E-01       4    7    1         0.8547358184E+00      0.1933331201E+01
          0                 2           2             4    7     1      -0.1579174106E-02       4    7    1        -0.8547383866E-01      0.1926973775E+00
          0                 3           1             4    7     1       0.1075358641E-03       4    7    1         0.5983168851E-02      0.1347780936E-01
          0                 4           1             4    7     1      -0.4278952358E-05       4    7    1        -0.2447119650E-03      0.5550584983E-03

    ------------------------------------------------
       NWT REQUIRED            4 OUTER ITERATIONS 
       AND A TOTAL OF          6 INNER ITERATIONS.
    ------------------------------------------------

 NO OUTPUT CONTROL FOR STRESS PERIOD   22   TIME STEP   20
 
 SOLVING FOR HEAD 
                                                   Max.-Head-Change                         Max.-Flux-Residual
  Residual-Control   Outer-Iter.   Inner-Iter.     Column Row Layer    Maximum-Head-Change  Column Row Layer    Maximum-Flux-Residual          L2-NORM 
          0                 1           2             4    7     1       0.1603082999E-01       4    7    1         0.8441745118E+00      0.1892542572E+01
          0                 2           2             4    7     1      -0.1559366468E-02       4    7    1        -0.8441770950E-01      0.1886402254E+00
          0                 3           1             4    7     1       0.1061870374E-03       4    7    1         0.5909239781E-02      0.1319607737E-01
          0                 4           1             4    7     1      -0.4225281252E-05       4    7    1        -0.2416882453E-03      0.5436644305E-03

    ------------------------------------------------
       NWT REQUIRED            4 OUTER ITERATIONS 
       AND A TOTAL OF          6 INNER ITERATIONS.
    ------------------------------------------------

 NO OUTPUT CONTROL FOR STRESS PERIOD   22   TIME STEP   21
 
 SOLVING FOR HEAD 
                                                   Max.-Head-Change                         Max.-Flux-Residual
  Residual-Control   Outer-Iter.   Inner-Iter.     Column Row Layer    Maximum-Head-Change  Column Row Layer    Maximum-Flux-Residual          L2-NORM 
          0                 1           2             4    7     1       0.1582685595E-01       4    7    1         0.8335788921E+00      0.1853547751E+01
          0                 2           2             4    7     1      -0.1539525363E-02       4    7    1        -0.8335814820E-01      0.1847596421E+00
          0                 3           1             4    7     1       0.1048359317E-03       4    7    1         0.5835070442E-02      0.1292722415E-01
          0                 4           1             4    7     1      -0.4171519426E-05       4    7    1        -0.2386547226E-03      0.5330683291E-03

    ------------------------------------------------
       NWT REQUIRED            4 OUTER ITERATIONS 
       AND A TOTAL OF          6 INNER ITERATIONS.
    ------------------------------------------------

 NO OUTPUT CONTROL FOR STRESS PERIOD   22   TIME STEP   22
 
 SOLVING FOR HEAD 
                                                   Max.-Head-Change                         Max.-Flux-Residual
  Residual-Control   Outer-Iter.   Inner-Iter.     Column Row Layer    Maximum-Head-Change  Column Row Layer    Maximum-Flux-Residual          L2-NORM 
          0                 1           2             4    7     1       0.1562309385E-01       4    7    1         0.8229802081E+00      0.1816200310E+01
          0                 2           2             4    7     1      -0.1519704864E-02       4    7    1        -0.8229827981E-01      0.1810400105E+00
          0                 3           1             4    7     1       0.1034862290E-03       4    7    1         0.5760879622E-02      0.1266886525E-01
          0                 4           1             4    7     1      -0.4117813091E-05       4    7    1        -0.2356202986E-03      0.5224949598E-03

    ------------------------------------------------
       NWT REQUIRED            4 OUTER ITERATIONS 
       AND A TOTAL OF          6 INNER ITERATIONS.
    ------------------------------------------------

 NO OUTPUT CONTROL FOR STRESS PERIOD   22   TIME STEP   23
 
 SOLVING FOR HEAD 
                                                   Max.-Head-Change                         Max.-Flux-Residual
  Residual-Control   Outer-Iter.   Inner-Iter.     Column Row Layer    Maximum-Head-Change  Column Row Layer    Maximum-Flux-Residual          L2-NORM 
          0                 1           2             4    7     1       0.1541952507E-01       4    7    1         0.8123777355E+00      0.1780398093E+01
          0                 2           2             4    7     1      -0.1499903161E-02       4    7    1        -0.8123803192E-01      0.1774724807E+00
          0                 3           1             4    7     1       0.1021378067E-03       4    7    1         0.5686662256E-02      0.1242094804E-01
          0                 4           1             4    7     1      -0.4064158334E-05       4    7    1        -0.2325847984E-03      0.5127513250E-03

    ------------------------------------------------
       NWT REQUIRED            4 OUTER ITERATIONS 
       AND A TOTAL OF          6 INNER ITERATIONS.
    ------------------------------------------------

 NO OUTPUT CONTROL FOR STRESS PERIOD   22   TIME STEP   24
 
 SOLVING FOR HEAD 
                                                   Max.-Head-Change                         Max.-Flux-Residual
  Residual-Control   Outer-Iter.   Inner-Iter.     Column Row Layer    Maximum-Head-Change  Column Row Layer    Maximum-Flux-Residual          L2-NORM 
          0                 1           2             4    7     1       0.1521666400E-01       4    7    1         0.8018000771E+00      0.1746033555E+01
          0                 2           2             4    7     1      -0.1480170291E-02       4    7    1        -0.8018026488E-01      0.1740466237E+00
          0                 3           1             4    7     1       0.1007940719E-03       4    7    1         0.5612618533E-02      0.1218264912E-01
          0                 4           1             4    7     1      -0.4010690543E-05       4    7    1        -0.2295564302E-03      0.5029781179E-03

    ------------------------------------------------
       NWT REQUIRED            4 OUTER ITERATIONS 
       AND A TOTAL OF          6 INNER ITERATIONS.
    ------------------------------------------------

 NO OUTPUT CONTROL FOR STRESS PERIOD   22   TIME STEP   25
 
 SOLVING FOR HEAD 
                                                   Max.-Head-Change                         Max.-Flux-Residual
  Residual-Control   Outer-Iter.   Inner-Iter.     Column Row Layer    Maximum-Head-Change  Column Row Layer    Maximum-Flux-Residual          L2-NORM 
          0                 1           2             4    7     1       0.1501444830E-01       4    7    1         0.7912443542E+00      0.1712996740E+01
          0                 2           2             4    7     1      -0.1460500190E-02       4    7    1        -0.7912469096E-01      0.1707519988E+00
          0                 3           1             4    7     1       0.9945461125E-04       4    7    1         0.5538728344E-02      0.1195335079E-01

    ------------------------------------------------
       NWT REQUIRED            3 OUTER ITERATIONS 
       AND A TOTAL OF          5 INNER ITERATIONS.
    ------------------------------------------------

 NO OUTPUT CONTROL FOR STRESS PERIOD   22   TIME STEP   26
 
 SOLVING FOR HEAD 
                                                   Max.-Head-Change                         Max.-Flux-Residual
  Residual-Control   Outer-Iter.   Inner-Iter.     Column Row Layer    Maximum-Head-Change  Column Row Layer    Maximum-Flux-Residual          L2-NORM 
          0                 1           2             4    7     1       0.1481328353E-01       4    7    1         0.7807333752E+00      0.1681209863E+01
          0                 2           2             4    7     1      -0.1440932312E-02       4    7    1        -0.7807359098E-01      0.1675806678E+00
          0                 3           1             4    7     1       0.9812211162E-04       4    7    1         0.5465151332E-02      0.1173266149E-01

    ------------------------------------------------
       NWT REQUIRED            3 OUTER ITERATIONS 
       AND A TOTAL OF          5 INNER ITERATIONS.
    ------------------------------------------------

 NO OUTPUT CONTROL FOR STRESS PERIOD   22   TIME STEP   27
 
 SOLVING FOR HEAD 
                                                   Max.-Head-Change                         Max.-Flux-Residual
  Residual-Control   Outer-Iter.   Inner-Iter.     Column Row Layer    Maximum-Head-Change  Column Row Layer    Maximum-Flux-Residual          L2-NORM 
          0                 1           2             4    7     1       0.1461340626E-01       4    7    1         0.7702804749E+00      0.1650583743E+01
          0                 2           2             4    7     1      -0.1421489666E-02       4    7    1        -0.7702829849E-01      0.1645312666E+00
          0                 3           1             4    7     1       0.9679814004E-04       4    7    1         0.5391980855E-02      0.1152033810E-01

    ------------------------------------------------
       NWT REQUIRED            3 OUTER ITERATIONS 
       AND A TOTAL OF          5 INNER ITERATIONS.
    ------------------------------------------------

 NO OUTPUT CONTROL FOR STRESS PERIOD   22   TIME STEP   28
 
 SOLVING FOR HEAD 
                                                   Max.-Head-Change                         Max.-Flux-Residual
  Residual-Control   Outer-Iter.   Inner-Iter.     Column Row Layer    Maximum-Head-Change  Column Row Layer    Maximum-Flux-Residual          L2-NORM 
          0                 1           2             4    7     1       0.1441443910E-01       4    7    1         0.7598648082E+00      0.1621055692E+01
          0                 2           2             4    7     1      -0.1402135543E-02       4    7    1        -0.7598672901E-01      0.1615777674E+00
          0                 3           1             4    7     1       0.9548019629E-04       4    7    1         0.5319070973E-02      0.1131494334E-01

    ------------------------------------------------
       NWT REQUIRED            3 OUTER ITERATIONS 
       AND A TOTAL OF          5 INNER ITERATIONS.
    ------------------------------------------------

 NO OUTPUT CONTROL FOR STRESS PERIOD   22   TIME STEP   29
 
 SOLVING FOR HEAD 
                                                   Max.-Head-Change                         Max.-Flux-Residual
  Residual-Control   Outer-Iter.   Inner-Iter.     Column Row Layer    Maximum-Head-Change  Column Row Layer    Maximum-Flux-Residual          L2-NORM 
          0                 1           2             4    7     1       0.1421735729E-01       4    7    1         0.7495407276E+00      0.1592553250E+01
          0                 2           2             4    7     1      -0.1382964811E-02       4    7    1        -0.7495431789E-01      0.1587322737E+00
          0                 3           1             4    7     1       0.9417474108E-04       4    7    1         0.5246802204E-02      0.1111669368E-01

    ------------------------------------------------
       NWT REQUIRED            3 OUTER ITERATIONS 
       AND A TOTAL OF          5 INNER ITERATIONS.
    ------------------------------------------------

 NO OUTPUT CONTROL FOR STRESS PERIOD   22   TIME STEP   30



 STREAM LISTING     PERIOD     22   STEP       30

 LAYER ROW COL. STREAM  RCH.  FLOW INTO     FLOW TO   FLOW OUT OF   OVRLND.     DIRECT     STREAM       STREAM     STREAM     STREAM   STREAMBED  STREAMBED
                SEG.NO.  NO.  STRM. RCH.    AQUIFER    STRM. RCH.    RUNOFF     PRECIP       ET          HEAD       DEPTH      WIDTH   CONDCTNC.   GRADIENT

   1    1    1     1     1    2.5000E+01  2.4515E-01   2.4755E+01  0.000E+00  0.000E+00  0.000E+00  1.09423E+03  1.178E+00  1.304E+01  5.867E-02  1.393E+00
   1    2    2     1     2    2.4755E+01  3.7909E-01   2.4376E+01  0.000E+00  0.000E+00  0.000E+00  1.08923E+03  1.174E+00  1.298E+01  9.083E-02  1.391E+00
   1    3    3     1     3    2.4376E+01  3.2275E-01   2.4053E+01  0.000E+00  0.000E+00  0.000E+00  1.08359E+03  1.168E+00  1.290E+01  7.743E-02  1.389E+00
   1    3    4     1     4    2.4053E+01  2.9675E-01   2.3756E+01  0.000E+00  0.000E+00  0.000E+00  1.07857E+03  1.164E+00  1.284E+01  7.127E-02  1.388E+00
   1    4    5     2     1    2.1756E+01  3.2027E-01   2.1436E+01  0.000E+00  0.000E+00  0.000E+00  1.07304E+03  1.106E+00  1.200E+01  7.800E-02  1.369E+00
   1    5    6     2     2    2.1436E+01  2.4584E-01   2.1190E+01  0.000E+00  0.000E+00  0.000E+00  1.06761E+03  1.097E+00  1.200E+01  6.000E-02  1.366E+00
   1    6    6     2     3    2.1190E+01  2.4538E-01   2.0945E+01  0.000E+00  0.000E+00  0.000E+00  1.06288E+03  1.090E+00  1.200E+01  6.000E-02  1.363E+00
   1    7    6     2     4    2.0945E+01  2.4493E-01   2.0700E+01  0.000E+00  0.000E+00  0.000E+00  1.05816E+03  1.082E+00  1.200E+01  6.000E-02  1.361E+00
   1    8    6     2     5    2.0700E+01  2.4447E-01   2.0455E+01  0.000E+00  0.000E+00  0.000E+00  1.05343E+03  1.074E+00  1.200E+01  6.000E-02  1.358E+00
   1    3    5     3     1    2.0000E+00  2.8252E-01   1.7175E+00  0.000E+00  0.000E+00  0.000E+00  1.07555E+03  1.909E+00  9.636E+00  7.227E-02  1.955E+00
   1    3    6     3     2    1.7175E+00  2.4905E-01   1.4684E+00  0.000E+00  0.000E+00  0.000E+00  1.07264E+03  1.727E+00  8.909E+00  6.682E-02  1.864E+00
   1    3    7     3     3    1.4684E+00  1.9718E-01   1.2712E+00  0.000E+00  0.000E+00  0.000E+00  1.06987E+03  1.555E+00  8.218E+00  5.547E-02  1.777E+00
   1    4    8     3     4    1.2712E+00  2.2567E-01   1.0456E+00  0.000E+00  0.000E+00  0.000E+00  1.06682E+03  1.364E+00  7.455E+00  6.709E-02  1.682E+00
   1    5    8     3     5    1.0456E+00  1.5790E-01   8.8768E-01  0.000E+00  0.000E+00  0.000E+00  1.06362E+03  1.164E+00  6.655E+00  4.991E-02  1.582E+00
   1    6    8     3     6    8.8768E-01  5.5980E-02   8.3170E-01  0.000E+00  0.000E+00  0.000E+00  1.06158E+03  1.036E+00  6.145E+00  1.844E-02  1.518E+00
   1    5   10     4     1    1.0000E+01  9.0919E-02   9.9091E+00  0.000E+00  0.000E+00  0.000E+00  1.07836E+03  6.368E-01  1.000E+01  2.500E-02  1.212E+00
   1    5    9     4     2    9.9091E+00  1.8158E-01   9.7275E+00  0.000E+00  0.000E+00  0.000E+00  1.07154E+03  6.315E-01  1.000E+01  5.000E-02  1.211E+00
   1    6    8     4     3    9.7275E+00  1.2689E-01   9.6006E+00  0.000E+00  0.000E+00  0.000E+00  1.06381E+03  6.256E-01  1.000E+01  3.500E-02  1.209E+00
   1    6    8     5     1    1.0432E+01  2.2686E-01   1.0205E+01  0.000E+00  0.000E+00  0.000E+00  1.05868E+03  6.790E-01  1.542E+01  6.166E-02  1.226E+00
   1    7    7     5     2    1.0205E+01  2.7894E-01   9.9265E+00  0.000E+00  0.000E+00  0.000E+00  1.05417E+03  6.732E-01  1.519E+01  7.594E-02  1.224E+00
   1    8    7     5     3    9.9265E+00  1.9221E-01   9.7343E+00  0.000E+00  0.000E+00  0.000E+00  1.04992E+03  6.676E-01  1.497E+01  5.241E-02  1.223E+00
   1    8    6     5     4    9.7343E+00  1.3577E-01   9.5985E+00  0.000E+00  0.000E+00  0.000E+00  1.04691E+03  6.637E-01  1.482E+01  3.706E-02  1.221E+00
   1    9    6     6     1    3.0054E+01  2.6161E-01   2.9792E+01  0.000E+00  0.000E+00  0.000E+00  1.04409E+03  1.360E+00  1.200E+01  6.000E-02  1.453E+00
   1   10    7     6     2    2.9792E+01  2.6118E-01   2.9531E+01  0.000E+00  0.000E+00  0.000E+00  1.03953E+03  1.353E+00  1.200E+01  6.000E-02  1.451E+00
   1   11    7     6     3    2.9531E+01  2.6075E-01   2.9270E+01  0.000E+00  0.000E+00  0.000E+00  1.03498E+03  1.346E+00  1.200E+01  6.000E-02  1.449E+00
   1   12    7     6     4    2.9270E+01  2.6032E-01   2.9010E+01  0.000E+00  0.000E+00  0.000E+00  1.03043E+03  1.339E+00  1.200E+01  6.000E-02  1.446E+00
   1   13    7     6     5    2.9010E+01  5.2931E-03   2.9005E+01  0.000E+00  0.000E+00  0.000E+00  1.02724E+03  1.335E+00  1.200E+01  2.400E-02  7.352E-02
   1   14    9     7     1    1.5000E+02  1.3330E+00   1.4867E+02  0.000E+00  0.000E+00  0.000E+00  1.03987E+03  2.288E+00  5.529E+01  5.593E-01  7.944E-01
   1   13    8     7     2    1.4867E+02  1.8353E+00   1.4683E+02  0.000E+00  0.000E+00  0.000E+00  1.03478E+03  2.279E+00  5.526E+01  6.148E-01  9.951E-01
   1   13    7     7     3    1.4683E+02  1.4890E+00   1.4534E+02  0.000E+00  0.000E+00  0.000E+00  1.02969E+03  2.270E+00  5.522E+01  5.584E-01  8.887E-01
   1   13    6     8     1    1.7435E+02  9.9833E-01   1.7335E+02  0.000E+00  0.000E+00  0.000E+00  1.02485E+03  2.977E+00  4.317E+01  4.399E-01  7.565E-01
   1   13    5     8     2    1.7335E+02  3.0463E-01   1.7304E+02  0.000E+00  0.000E+00  0.000E+00  1.01860E+03  2.973E+00  4.311E+01  4.393E-01  2.312E-01
   1   13    4     8     3    1.7304E+02 -1.8750E+00   1.7492E+02  0.000E+00  0.000E+00  0.000E+00  1.01235E+03  2.978E+00  4.318E+01  4.400E+00 -1.420E-01
   1   13    3     8     4    1.7492E+02 -3.1420E+00   1.7806E+02  0.000E+00  0.000E+00  0.000E+00  1.00612E+03  2.994E+00  4.341E+01  4.424E+00 -2.367E-01
   1   13    2     8     5    1.7806E+02 -2.2176E+00   1.8028E+02  0.000E+00  0.000E+00  0.000E+00  9.99886E+02  3.011E+00  4.366E+01  4.449E+00 -1.662E-01
   1   13    1     8     6    1.8028E+02 -1.3830E+00   1.8166E+02  0.000E+00  0.000E+00  0.000E+00  9.94897E+02  3.022E+00  4.382E+01  2.679E+00 -1.721E-01
   1    8    6     9     1    0.0000E+00  0.0000E+00   0.0000E+00  0.000E+00  0.000E+00  0.000E+00  1.07875E+03  0.000E+00  4.000E+00  0.000E+00  1.000E+00
   1    8    5     9     2    0.0000E+00  0.0000E+00   0.0000E+00  0.000E+00  0.000E+00  0.000E+00  1.07825E+03  0.000E+00  4.000E+00  0.000E+00  1.000E+00





UNSATURATED ZONE PACKAGE VOLUMETRIC BUDGET FOR  TIME STEP    30 STRESS PERIOD   22
  ------------------------------------------------------------------------------



     CUMULATIVE VOLUMES      L**3       RATES FOR THIS TIME STEP      L**3/T
     ------------------                 ------------------------

           IN:                                      IN:
           ---                                      ---
        INFILTRATION =   338433620.8621          INFILTRATION =           0.8475

          OUT:                                     OUT:
          ----                                     ----
              UZF ET =   198038854.7110                UZF ET =           4.0748
        UZF RECHARGE =    12726232.9041          UZF RECHARGE =           0.0556

            IN - OUT =   127668533.2470              IN - OUT =          -3.2830

          STORAGE:                                 STORAGE:
          --------                                 --------
      STORAGE CHANGE =   127818474.7940        STORAGE CHANGE =          -3.2830

 PERCENT DISCREPANCY IS DIFFERENCE BETWEEN IN-OUT MINUS CHANGE IN STORAGE
 DIVIDED BY THE AVERAGE OF IN AND OUT TIMES 100

 PERCENT DISCREPANCY =          -0.01     PERCENT DISCREPANCY =          -0.00






1
  VOLUMETRIC BUDGET FOR ENTIRE MODEL AT END OF TIME STEP   30, STRESS PERIOD  22
  ------------------------------------------------------------------------------

     CUMULATIVE VOLUMES      L**3       RATES FOR THIS TIME STEP      L**3/T
     ------------------                 ------------------------

           IN:                                      IN:
           ---                                      ---
               AWU WELLS =   168013232.0000                 AWU WELLS =           0.0000
      DIVERSION SEGMENTS =   123574016.0000        DIVERSION SEGMENTS =           0.0000
           GW IRRIGATION =           0.0000             GW IRRIGATION =           0.0000
           SW IRRIGATION =           0.0000             SW IRRIGATION =           0.0000
        SYSTEM LOSSES GW =           0.0000          SYSTEM LOSSES GW =           0.0000
        SYSTEM LOSSES SW =           0.0000          SYSTEM LOSSES SW =           0.0000

                TOTAL IN =   291587264.0000                  TOTAL IN =           0.0000

          OUT:                                     OUT:
          ----                                     ----
               AWU WELLS =           0.0000                 AWU WELLS =           0.0000
      DIVERSION SEGMENTS =           0.0000        DIVERSION SEGMENTS =           0.0000
           GW IRRIGATION =   168013232.0000             GW IRRIGATION =           0.0000
           SW IRRIGATION =   123576472.0000             SW IRRIGATION =           0.0000
        SYSTEM LOSSES GW =           0.0000          SYSTEM LOSSES GW =           0.0000
        SYSTEM LOSSES SW =           0.0000          SYSTEM LOSSES SW =           0.0000

               TOTAL OUT =   291589696.0000                 TOTAL OUT =           0.0000

                IN - OUT =       -2432.0000                  IN - OUT =           0.0000

     PERCENT DISCREPANCY =          -0.00         PERCENT DISCREPANCY =           0.00



1
  VOLUMETRIC BUDGET FOR ENTIRE MODEL AT END OF TIME STEP   30, STRESS PERIOD  22
  ------------------------------------------------------------------------------

     CUMULATIVE VOLUMES      L**3       RATES FOR THIS TIME STEP      L**3/T
     ------------------                 ------------------------

           IN:                                      IN:
           ---                                      ---
             STORAGE     =   313842720.0000               STORAGE     =           3.6345
       CONSTANT HEAD     =           0.0000         CONSTANT HEAD     =           0.0000
     HEAD DEP BOUNDS     =    15788688.0000       HEAD DEP BOUNDS     =           0.2856
      STREAM LEAKAGE     =   698382912.0000        STREAM LEAKAGE     =          11.9554
        UZF RECHARGE     =    12726226.0000          UZF RECHARGE     =       5.5647E-02
               GW ET     =           0.0000                 GW ET     =           0.0000
     SURFACE LEAKAGE     =           0.0000       SURFACE LEAKAGE     =           0.0000
           AWU WELLS     =           0.0000             AWU WELLS     =           0.0000

                TOTAL IN =  1040740544.0000                  TOTAL IN =          15.9312

          OUT:                                     OUT:
          ----                                     ----
             STORAGE     =   228799856.0000               STORAGE     =           4.6139
       CONSTANT HEAD     =           0.0000         CONSTANT HEAD     =           0.0000
     HEAD DEP BOUNDS     =    15994662.0000       HEAD DEP BOUNDS     =           0.2817
      STREAM LEAKAGE     =   517383840.0000        STREAM LEAKAGE     =           8.6177
        UZF RECHARGE     =           0.0000          UZF RECHARGE     =           0.0000
               GW ET     =   110558640.0000                 GW ET     =           2.4181
     SURFACE LEAKAGE     =           0.0000       SURFACE LEAKAGE     =           0.0000
           AWU WELLS     =   168013232.0000             AWU WELLS     =           0.0000

               TOTAL OUT =  1040750272.0000                 TOTAL OUT =          15.9313

                IN - OUT =       -9728.0000                  IN - OUT =      -1.8597E-04

     PERCENT DISCREPANCY =          -0.00         PERCENT DISCREPANCY =          -0.00






         TIME SUMMARY AT END OF TIME STEP   30 IN STRESS PERIOD   22
                    SECONDS     MINUTES      HOURS       DAYS        YEARS
                    -----------------------------------------------------------
   TIME STEP LENGTH  87600.      1460.0      24.333      1.0139     2.77588E-03
 STRESS PERIOD TIME 2.62800E+06  43800.      730.00      30.417     8.32763E-02
         TOTAL TIME 5.52744E+07 9.21240E+05  15354.      639.75      1.7515    
1
1
                            STRESS PERIOD NO.   23, LENGTH =   2628000.    
                            -----------------------------------------------

                              NUMBER OF TIME STEPS =    30

                               MULTIPLIER FOR DELT =     1.000

                            INITIAL TIME STEP SIZE =   87600.00    

 REUSING NON-PARAMETER GHB CELLS FROM LAST STRESS PERIOD

      2 GHB CELLS

 REUSING STREAM SEGMENT DATA FROM LAST STRESS PERIOD



            AREAL INFILTRATION RATE
 READING ON UNIT   19 WITH FORMAT: (10F4.0)            

            1           2           3           4           5           6           7           8           9          10
 ........................................................................................................................
   1   1.0000E-10  2.0000E-10   0.000       0.000       0.000       0.000       0.000       0.000       0.000       0.000    
   2   2.0000E-10  1.0000E-10  2.0000E-10   0.000       0.000      8.0000E-10  8.0000E-10  5.0000E-10   0.000       0.000    
   3    0.000      5.0000E-10  1.0000E-10  1.0000E-10  8.0000E-10  8.0000E-10  5.0000E-10  5.0000E-10   0.000       0.000    
   4   8.0000E-10  5.0000E-10  1.0000E-10  1.0000E-10  1.0000E-10  1.0000E-10  1.0000E-10  1.0000E-10  2.0000E-10   0.000    
   5   8.0000E-10  5.0000E-10  1.0000E-10  1.0000E-10  1.0000E-10  1.0000E-10  1.0000E-10  1.0000E-10  1.0000E-10  1.0000E-10
   6   8.0000E-10  5.0000E-10  5.0000E-10  2.0000E-10  2.0000E-10  1.0000E-10  1.0000E-10  1.0000E-10  1.0000E-10  5.0000E-10
   7   8.0000E-10  5.0000E-10  5.0000E-10  2.0000E-10  2.0000E-10  1.0000E-10  1.0000E-10  2.0000E-10  2.0000E-10   0.000    
   8    0.000      5.0000E-10  5.0000E-10  2.0000E-10  2.0000E-10  1.0000E-10  1.0000E-10  2.0000E-10  5.0000E-10   0.000    
   9    0.000      5.0000E-10  5.0000E-10  2.0000E-10  2.0000E-10  1.0000E-10  1.0000E-10  2.0000E-10  5.0000E-10   0.000    
  10    0.000      5.0000E-10  5.0000E-10  2.0000E-10  2.0000E-10  1.0000E-10  1.0000E-10  2.0000E-10  5.0000E-10  8.0000E-10
  11    0.000      1.0000E-10  1.0000E-10  1.0000E-10  1.0000E-10  1.0000E-10  1.0000E-10  2.0000E-10  5.0000E-10   0.000    
  12   1.0000E-10  1.0000E-10  1.0000E-10  1.0000E-10  1.0000E-10  1.0000E-10  1.0000E-10  1.0000E-10  2.0000E-10   0.000    
  13   1.0000E-10  1.0000E-10  2.0000E-10  2.0000E-10  2.0000E-10  2.0000E-10  2.0000E-10  1.0000E-10  1.0000E-10   0.000    
  14    0.000      2.0000E-10  5.0000E-10  5.0000E-10  5.0000E-10  5.0000E-10  5.0000E-10  2.0000E-10  1.0000E-10   0.000    
  15    0.000       0.000      8.0000E-10  8.0000E-10  8.0000E-10  8.0000E-10   0.000       0.000       0.000       0.000    

                  ET RATE =  1.000000E-10

 USING ET EXTINCTION DEPTH FROM PREVIOUS STRESS PERIOD. CURRENT PERIOD IS:      23

 USING EXTINCTION WATER CONTENT FROM PREVIOUS STRESS PERIOD. CURRENT PERIOD IS:      23

 PROCESSING AWU STRESS PERIOD DATA

 READING AWU STRESS PERIOD DATA

 READING IRRIGATION STREAM

 READING IRRIGATION WELL

 READING SUPPLEMENTAL WEL

 END PROCESSING AWU STRESS PERIOD DATA OPTIONS
 
 SOLVING FOR HEAD 
                                                   Max.-Head-Change                         Max.-Flux-Residual
  Residual-Control   Outer-Iter.   Inner-Iter.     Column Row Layer    Maximum-Head-Change  Column Row Layer    Maximum-Flux-Residual          L2-NORM 
          0                 1           2             4    7     1       0.1402171399E-01       4    7    1         0.7392849015E+00      0.1973579090E+01
          0                 2           2             4    7     1      -0.1363934002E-02       4    7    1        -0.7392873198E-01      0.1955432938E+00
          0                 3           1             4    7     1       0.9287881291E-04       4    7    1         0.5175011199E-02      0.1356335619E-01

    ------------------------------------------------
       NWT REQUIRED            3 OUTER ITERATIONS 
       AND A TOTAL OF          5 INNER ITERATIONS.
    ------------------------------------------------

 NO OUTPUT CONTROL FOR STRESS PERIOD   23   TIME STEP    1
 
 SOLVING FOR HEAD 
                                                   Max.-Head-Change                         Max.-Flux-Residual
  Residual-Control   Outer-Iter.   Inner-Iter.     Column Row Layer    Maximum-Head-Change  Column Row Layer    Maximum-Flux-Residual          L2-NORM 
          0                 1           2             4    7     1       0.1382762668E-01       4    7    1         0.7291037173E+00      0.1894723761E+01
          0                 2           2             4    7     1      -0.1345054545E-02       4    7    1        -0.7291061001E-01      0.1878956278E+00
          0                 3           1             4    7     1       0.9159319257E-04       4    7    1         0.5103742654E-02      0.1305001352E-01

    ------------------------------------------------
       NWT REQUIRED            3 OUTER ITERATIONS 
       AND A TOTAL OF          5 INNER ITERATIONS.
    ------------------------------------------------

 NO OUTPUT CONTROL FOR STRESS PERIOD   23   TIME STEP    2
 
 SOLVING FOR HEAD 
                                                   Max.-Head-Change                         Max.-Flux-Residual
  Residual-Control   Outer-Iter.   Inner-Iter.     Column Row Layer    Maximum-Head-Change  Column Row Layer    Maximum-Flux-Residual          L2-NORM 
          0                 1           2             4    7     1       0.1363547979E-01       4    7    1         0.7190180596E+00      0.1837852100E+01
          0                 2           2             4    7     1      -0.1326363836E-02       4    7    1        -0.7190204054E-01      0.1823280180E+00
          0                 3           1             4    7     1       0.9032042525E-04       4    7    1         0.5033142790E-02      0.1267231079E-01

    ------------------------------------------------
       NWT REQUIRED            3 OUTER ITERATIONS 
       AND A TOTAL OF          5 INNER ITERATIONS.
    ------------------------------------------------

 NO OUTPUT CONTROL FOR STRESS PERIOD   23   TIME STEP    3
 
 SOLVING FOR HEAD 
                                                   Max.-Head-Change                         Max.-Flux-Residual
  Residual-Control   Outer-Iter.   Inner-Iter.     Column Row Layer    Maximum-Head-Change  Column Row Layer    Maximum-Flux-Residual          L2-NORM 
          0                 1           2             4    7     1       0.1344535736E-01       4    7    1         0.7090330879E+00      0.1784965596E+01
          0                 2           2             4    7     1      -0.1307870050E-02       4    7    1        -0.7090353952E-01      0.1771460113E+00
          0                 3           1             4    7     1       0.8906106784E-04       4    7    1         0.4963247749E-02      0.1232048178E-01

    ------------------------------------------------
       NWT REQUIRED            3 OUTER ITERATIONS 
       AND A TOTAL OF          5 INNER ITERATIONS.
    ------------------------------------------------

 NO OUTPUT CONTROL FOR STRESS PERIOD   23   TIME STEP    4
 
 SOLVING FOR HEAD 
                                                   Max.-Head-Change                         Max.-Flux-Residual
  Residual-Control   Outer-Iter.   Inner-Iter.     Column Row Layer    Maximum-Head-Change  Column Row Layer    Maximum-Flux-Residual          L2-NORM 
          0                 1           2             4    7     1       0.1325707738E-01       4    7    1         0.6991383732E+00      0.1735686603E+01
          0                 2           2             4    7     1      -0.1289555483E-02       4    7    1        -0.6991406407E-01      0.1723134458E+00
          0                 3           1             4    7     1       0.8781391377E-04       4    7    1         0.4893984446E-02      0.1199155653E-01

    ------------------------------------------------
       NWT REQUIRED            3 OUTER ITERATIONS 
       AND A TOTAL OF          5 INNER ITERATIONS.
    ------------------------------------------------

 NO OUTPUT CONTROL FOR STRESS PERIOD   23   TIME STEP    5
 
 SOLVING FOR HEAD 
                                                   Max.-Head-Change                         Max.-Flux-Residual
  Residual-Control   Outer-Iter.   Inner-Iter.     Column Row Layer    Maximum-Head-Change  Column Row Layer    Maximum-Flux-Residual          L2-NORM 
          0                 1           2             4    7     1       0.1307097997E-01       4    7    1         0.6893540508E+00      0.1689631048E+01
          0                 2           2             4    7     1      -0.1271453218E-02       4    7    1        -0.6893562775E-01      0.1677933636E+00
          0                 3           1             4    7     1       0.8658121784E-04       4    7    1         0.4825493928E-02      0.1168394739E-01

    ------------------------------------------------
       NWT REQUIRED            3 OUTER ITERATIONS 
       AND A TOTAL OF          5 INNER ITERATIONS.
    ------------------------------------------------

 NO OUTPUT CONTROL FOR STRESS PERIOD   23   TIME STEP    6
 
 SOLVING FOR HEAD 
                                                   Max.-Head-Change                         Max.-Flux-Residual
  Residual-Control   Outer-Iter.   Inner-Iter.     Column Row Layer    Maximum-Head-Change  Column Row Layer    Maximum-Flux-Residual          L2-NORM 
          0                 1           2             4    7     1       0.1288686113E-01       4    7    1         0.6796681880E+00      0.1646491262E+01
          0                 2           2             4    7     1      -0.1253543412E-02       4    7    1        -0.6796703730E-01      0.1635559732E+00
          0                 3           1             4    7     1       0.8536162651E-04       4    7    1         0.4757692584E-02      0.1139535076E-01

    ------------------------------------------------
       NWT REQUIRED            3 OUTER ITERATIONS 
       AND A TOTAL OF          5 INNER ITERATIONS.
    ------------------------------------------------

 NO OUTPUT CONTROL FOR STRESS PERIOD   23   TIME STEP    7
 
 SOLVING FOR HEAD 
                                                   Max.-Head-Change                         Max.-Flux-Residual
  Residual-Control   Outer-Iter.   Inner-Iter.     Column Row Layer    Maximum-Head-Change  Column Row Layer    Maximum-Flux-Residual          L2-NORM 
          0                 1           2             4    7     1       0.1270505056E-01       4    7    1         0.6700997802E+00      0.1605989654E+01
          0                 2           2             4    7     1      -0.1235858139E-02       4    7    1        -0.6701019228E-01      0.1595752156E+00
          0                 3           1             4    7     1       0.8415732616E-04       4    7    1         0.4690713460E-02      0.1112307368E-01

    ------------------------------------------------
       NWT REQUIRED            3 OUTER ITERATIONS 
       AND A TOTAL OF          5 INNER ITERATIONS.
    ------------------------------------------------

 NO OUTPUT CONTROL FOR STRESS PERIOD   23   TIME STEP    8
 
 SOLVING FOR HEAD 
                                                   Max.-Head-Change                         Max.-Flux-Residual
  Residual-Control   Outer-Iter.   Inner-Iter.     Column Row Layer    Maximum-Head-Change  Column Row Layer    Maximum-Flux-Residual          L2-NORM 
          0                 1           2             4    7     1       0.1252558638E-01       4    7    1         0.6606511456E+00      0.1567861565E+01
          0                 2           2             4    7     1      -0.1218401104E-02       4    7    1        -0.6606532456E-01      0.1558236264E+00
          0                 3           1             4    7     1       0.8296856744E-04       4    7    1         0.4624572723E-02      0.1086696769E-01

    ------------------------------------------------
       NWT REQUIRED            3 OUTER ITERATIONS 
       AND A TOTAL OF          5 INNER ITERATIONS.
    ------------------------------------------------

 NO OUTPUT CONTROL FOR STRESS PERIOD   23   TIME STEP    9
 
 SOLVING FOR HEAD 
                                                   Max.-Head-Change                         Max.-Flux-Residual
  Residual-Control   Outer-Iter.   Inner-Iter.     Column Row Layer    Maximum-Head-Change  Column Row Layer    Maximum-Flux-Residual          L2-NORM 
          0                 1           2             4    7     1       0.1234823777E-01       4    7    1         0.6513094699E+00      0.1531909112E+01
          0                 2           2             4    7     1      -0.1201149856E-02       4    7    1        -0.6513115267E-01      0.1522830787E+00
          0                 3           1             4    7     1       0.8179382167E-04       4    7    1         0.4559180702E-02      0.1062516972E-01

    ------------------------------------------------
       NWT REQUIRED            3 OUTER ITERATIONS 
       AND A TOTAL OF          5 INNER ITERATIONS.
    ------------------------------------------------

 NO OUTPUT CONTROL FOR STRESS PERIOD   23   TIME STEP   10
 
 SOLVING FOR HEAD 
                                                   Max.-Head-Change                         Max.-Flux-Residual
  Residual-Control   Outer-Iter.   Inner-Iter.     Column Row Layer    Maximum-Head-Change  Column Row Layer    Maximum-Flux-Residual          L2-NORM 
          0                 1           2             4    7     1       0.1217330981E-01       4    7    1         0.6420923588E+00      0.1497909292E+01
          0                 2           2             4    7     1      -0.1184134071E-02       4    7    1        -0.6420943725E-01      0.1489317500E+00
          0                 3           1             4    7     1       0.8063511146E-04       4    7    1         0.4494660657E-02      0.1039538318E-01

    ------------------------------------------------
       NWT REQUIRED            3 OUTER ITERATIONS 
       AND A TOTAL OF          5 INNER ITERATIONS.
    ------------------------------------------------

 NO OUTPUT CONTROL FOR STRESS PERIOD   23   TIME STEP   11
 
 SOLVING FOR HEAD 
                                                   Max.-Head-Change                         Max.-Flux-Residual
  Residual-Control   Outer-Iter.   Inner-Iter.     Column Row Layer    Maximum-Head-Change  Column Row Layer    Maximum-Flux-Residual          L2-NORM 
          0                 1           2             4    7     1       0.1200082617E-01       4    7    1         0.6330008514E+00      0.1465709377E+01
          0                 2           2             4    7     1      -0.1167356053E-02       4    7    1        -0.6330028219E-01      0.1457564612E+00
          0                 3           1             4    7     1       0.7949259088E-04       4    7    1         0.4431019817E-02      0.1017758575E-01

    ------------------------------------------------
       NWT REQUIRED            3 OUTER ITERATIONS 
       AND A TOTAL OF          5 INNER ITERATIONS.
    ------------------------------------------------

 NO OUTPUT CONTROL FOR STRESS PERIOD   23   TIME STEP   12
 
 SOLVING FOR HEAD 
                                                   Max.-Head-Change                         Max.-Flux-Residual
  Residual-Control   Outer-Iter.   Inner-Iter.     Column Row Layer    Maximum-Head-Change  Column Row Layer    Maximum-Flux-Residual          L2-NORM 
          0                 1           2             4    7     1       0.1183053323E-01       4    7    1         0.6240213834E+00      0.1435142233E+01
          0                 2           2             4    7     1      -0.1150791128E-02       4    7    1        -0.6240233106E-01      0.1427392623E+00
          0                 3           1             4    7     1       0.7836458146E-04       4    7    1         0.4368163240E-02      0.9970416372E-02

    ------------------------------------------------
       NWT REQUIRED            3 OUTER ITERATIONS 
       AND A TOTAL OF          5 INNER ITERATIONS.
    ------------------------------------------------

 NO OUTPUT CONTROL FOR STRESS PERIOD   23   TIME STEP   13
 
 SOLVING FOR HEAD 
                                                   Max.-Head-Change                         Max.-Flux-Residual
  Residual-Control   Outer-Iter.   Inner-Iter.     Column Row Layer    Maximum-Head-Change  Column Row Layer    Maximum-Flux-Residual          L2-NORM 
          0                 1           2             4    7     1       0.1166272057E-01       4    7    1         0.6151703792E+00      0.1406061109E+01
          0                 2           2             4    7     1      -0.1134467469E-02       4    7    1        -0.6151722636E-01      0.1398613893E+00
          0                 3           1             4    7     1       0.7725300165E-04       4    7    1         0.4306205918E-02      0.9772275740E-02

    ------------------------------------------------
       NWT REQUIRED            3 OUTER ITERATIONS 
       AND A TOTAL OF          5 INNER ITERATIONS.
    ------------------------------------------------

 NO OUTPUT CONTROL FOR STRESS PERIOD   23   TIME STEP   14
 
 SOLVING FOR HEAD 
                                                   Max.-Head-Change                         Max.-Flux-Residual
  Residual-Control   Outer-Iter.   Inner-Iter.     Column Row Layer    Maximum-Head-Change  Column Row Layer    Maximum-Flux-Residual          L2-NORM 
          0                 1           2             4    7     1       0.1149739354E-01       4    7    1         0.6064480727E+00      0.1378359387E+01
          0                 2           2             4    7     1      -0.1118385594E-02       4    7    1        -0.6064499146E-01      0.1371188991E+00
          0                 3           1             4    7     1       0.7615788579E-04       4    7    1         0.4245149486E-02      0.9583459577E-02

    ------------------------------------------------
       NWT REQUIRED            3 OUTER ITERATIONS 
       AND A TOTAL OF          5 INNER ITERATIONS.
    ------------------------------------------------

 NO OUTPUT CONTROL FOR STRESS PERIOD   23   TIME STEP   15
 
 SOLVING FOR HEAD 
                                                   Max.-Head-Change                         Max.-Flux-Residual
  Residual-Control   Outer-Iter.   Inner-Iter.     Column Row Layer    Maximum-Head-Change  Column Row Layer    Maximum-Flux-Residual          L2-NORM 
          0                 1           2             4    7     1       0.1133455161E-01       4    7    1         0.5978547414E+00      0.1351919523E+01
          0                 2           2             4    7     1      -0.1102545452E-02       4    7    1        -0.5978565410E-01      0.1345001126E+00
          0                 3           1             4    7     1       0.7507923149E-04       4    7    1         0.4184995890E-02      0.9403051564E-02

    ------------------------------------------------
       NWT REQUIRED            3 OUTER ITERATIONS 
       AND A TOTAL OF          5 INNER ITERATIONS.
    ------------------------------------------------

 NO OUTPUT CONTROL FOR STRESS PERIOD   23   TIME STEP   16
 
 SOLVING FOR HEAD 
                                                   Max.-Head-Change                         Max.-Flux-Residual
  Residual-Control   Outer-Iter.   Inner-Iter.     Column Row Layer    Maximum-Head-Change  Column Row Layer    Maximum-Flux-Residual          L2-NORM 
          0                 1           2             4    7     1       0.1117392106E-01       4    7    1         0.5893755631E+00      0.1326644317E+01
          0                 2           2             4    7     1      -0.1086920417E-02       4    7    1        -0.5893773207E-01      0.1319945133E+00
          0                 3           1             4    7     1       0.7401522538E-04       4    7    1         0.4125641363E-02      0.9230624887E-02

    ------------------------------------------------
       NWT REQUIRED            3 OUTER ITERATIONS 
       AND A TOTAL OF          5 INNER ITERATIONS.
    ------------------------------------------------

 NO OUTPUT CONTROL FOR STRESS PERIOD   23   TIME STEP   17
 
 SOLVING FOR HEAD 
                                                   Max.-Head-Change                         Max.-Flux-Residual
  Residual-Control   Outer-Iter.   Inner-Iter.     Column Row Layer    Maximum-Head-Change  Column Row Layer    Maximum-Flux-Residual          L2-NORM 
          0                 1           2             4    7     1       0.1101578491E-01       4    7    1         0.5810259235E+00      0.1302446056E+01
          0                 2           2             4    7     1      -0.1071538021E-02       4    7    1        -0.5810276398E-01      0.1295941211E+00
          0                 3           1             4    7     1       0.7296774167E-04       4    7    1         0.4067193607E-02      0.9064901576E-02

    ------------------------------------------------
       NWT REQUIRED            3 OUTER ITERATIONS 
       AND A TOTAL OF          5 INNER ITERATIONS.
    ------------------------------------------------

 NO OUTPUT CONTROL FOR STRESS PERIOD   23   TIME STEP   18
 
 SOLVING FOR HEAD 
                                                   Max.-Head-Change                         Max.-Flux-Residual
  Residual-Control   Outer-Iter.   Inner-Iter.     Column Row Layer    Maximum-Head-Change  Column Row Layer    Maximum-Flux-Residual          L2-NORM 
          0                 1           2             4    7     1       0.1086011945E-01       4    7    1         0.5728057146E+00      0.1279233054E+01
          0                 2           2             4    7     1      -0.1056395956E-02       4    7    1        -0.5728073902E-01      0.1272903721E+00
          0                 3           1             4    7     1       0.7193662439E-04       4    7    1         0.4009651885E-02      0.8904120544E-02

    ------------------------------------------------
       NWT REQUIRED            3 OUTER ITERATIONS 
       AND A TOTAL OF          5 INNER ITERATIONS.
    ------------------------------------------------

 NO OUTPUT CONTROL FOR STRESS PERIOD   23   TIME STEP   19
 
 SOLVING FOR HEAD 
                                                   Max.-Head-Change                         Max.-Flux-Residual
  Residual-Control   Outer-Iter.   Inner-Iter.     Column Row Layer    Maximum-Head-Change  Column Row Layer    Maximum-Flux-Residual          L2-NORM 
          0                 1           2             4    7     1       0.1070691956E-01       4    7    1         0.5647137046E+00      0.1256956358E+01
          0                 2           2             4    7     1      -0.1041493724E-02       4    7    1        -0.5647153398E-01      0.1250779724E+00
          0                 3           1             4    7     1       0.7092183803E-04       4    7    1         0.3953007539E-02      0.8752987919E-02

    ------------------------------------------------
       NWT REQUIRED            3 OUTER ITERATIONS 
       AND A TOTAL OF          5 INNER ITERATIONS.
    ------------------------------------------------

 NO OUTPUT CONTROL FOR STRESS PERIOD   23   TIME STEP   20
 
 SOLVING FOR HEAD 
                                                   Max.-Head-Change                         Max.-Flux-Residual
  Residual-Control   Outer-Iter.   Inner-Iter.     Column Row Layer    Maximum-Head-Change  Column Row Layer    Maximum-Flux-Residual          L2-NORM 
          0                 1           2             4    7     1       0.1055616487E-01       4    7    1         0.5567496290E+00      0.1235533618E+01
          0                 2           2             4    7     1      -0.1026829346E-02       4    7    1        -0.5567512248E-01      0.1229478155E+00
          0                 3           1             4    7     1       0.6992324889E-04       4    7    1         0.3897258752E-02      0.8605315908E-02

    ------------------------------------------------
       NWT REQUIRED            3 OUTER ITERATIONS 
       AND A TOTAL OF          5 INNER ITERATIONS.
    ------------------------------------------------

 NO OUTPUT CONTROL FOR STRESS PERIOD   23   TIME STEP   21
 
 SOLVING FOR HEAD 
                                                   Max.-Head-Change                         Max.-Flux-Residual
  Residual-Control   Outer-Iter.   Inner-Iter.     Column Row Layer    Maximum-Head-Change  Column Row Layer    Maximum-Flux-Residual          L2-NORM 
          0                 1           2             4    7     1       0.1040783766E-01       4    7    1         0.5489124303E+00      0.1214914650E+01
          0                 2           2             4    7     1      -0.1012401095E-02       4    7    1        -0.5489139875E-01      0.1208965173E+00
          0                 3           1             4    7     1       0.6894073932E-04       4    7    1         0.3842398101E-02      0.8463508242E-02

    ------------------------------------------------
       NWT REQUIRED            3 OUTER ITERATIONS 
       AND A TOTAL OF          5 INNER ITERATIONS.
    ------------------------------------------------

 NO OUTPUT CONTROL FOR STRESS PERIOD   23   TIME STEP   22
 
 SOLVING FOR HEAD 
                                                   Max.-Head-Change                         Max.-Flux-Residual
  Residual-Control   Outer-Iter.   Inner-Iter.     Column Row Layer    Maximum-Head-Change  Column Row Layer    Maximum-Flux-Residual          L2-NORM 
          0                 1           2             4    7     1       0.1026165233E-01       4    7    1         0.5411863925E+00      0.1195046437E+01
          0                 2           2             4    7     1      -0.9981811916E-03       4    7    1        -0.5411879114E-01      0.1189189484E+00
          0                 3           1             4    7     1       0.6797241667E-04       4    7    1         0.3788315569E-02      0.8326727118E-02

    ------------------------------------------------
       NWT REQUIRED            3 OUTER ITERATIONS 
       AND A TOTAL OF          5 INNER ITERATIONS.
    ------------------------------------------------

 NO OUTPUT CONTROL FOR STRESS PERIOD   23   TIME STEP   23
 
 SOLVING FOR HEAD 
                                                   Max.-Head-Change                         Max.-Flux-Residual
  Residual-Control   Outer-Iter.   Inner-Iter.     Column Row Layer    Maximum-Head-Change  Column Row Layer    Maximum-Flux-Residual          L2-NORM 
          0                 1           2             4    7     1       0.1011813470E-01       4    7    1         0.5336010861E+00      0.1175873678E+01
          0                 2           2             4    7     1      -0.9842207839E-03       4    7    1        -0.5336025674E-01      0.1170090253E+00
          0                 3           1             4    7     1       0.6702176546E-04       4    7    1         0.3735218168E-02      0.8194109355E-02

    ------------------------------------------------
       NWT REQUIRED            3 OUTER ITERATIONS 
       AND A TOTAL OF          5 INNER ITERATIONS.
    ------------------------------------------------

 NO OUTPUT CONTROL FOR STRESS PERIOD   23   TIME STEP   24
 
 SOLVING FOR HEAD 
                                                   Max.-Head-Change                         Max.-Flux-Residual
  Residual-Control   Outer-Iter.   Inner-Iter.     Column Row Layer    Maximum-Head-Change  Column Row Layer    Maximum-Flux-Residual          L2-NORM 
          0                 1           2             4    7     1       0.9976701338E-02       4    7    1         0.5261246085E+00      0.1157352872E+01
          0                 2           2             4    7     1      -0.9704631203E-03       4    7    1        -0.5261260528E-01      0.1151628817E+00
          0                 3           1             4    7     1       0.6608492034E-04       4    7    1         0.3682882593E-02      0.8066234285E-02

    ------------------------------------------------
       NWT REQUIRED            3 OUTER ITERATIONS 
       AND A TOTAL OF          5 INNER ITERATIONS.
    ------------------------------------------------

 NO OUTPUT CONTROL FOR STRESS PERIOD   23   TIME STEP   25
 
 SOLVING FOR HEAD 
                                                   Max.-Head-Change                         Max.-Flux-Residual
  Residual-Control   Outer-Iter.   Inner-Iter.     Column Row Layer    Maximum-Head-Change  Column Row Layer    Maximum-Flux-Residual          L2-NORM 
          0                 1           2             4    7     1       0.9837618431E-02       4    7    1         0.5187710763E+00      0.1139453056E+01
          0                 2           2             4    7     1      -0.9569340925E-03       4    7    1        -0.5187724844E-01      0.1133776789E+00
          0                 3           1             4    7     1       0.6516364431E-04       4    7    1         0.3631407632E-02      0.7942503509E-02

    ------------------------------------------------
       NWT REQUIRED            3 OUTER ITERATIONS 
       AND A TOTAL OF          5 INNER ITERATIONS.
    ------------------------------------------------

 NO OUTPUT CONTROL FOR STRESS PERIOD   23   TIME STEP   26
 
 SOLVING FOR HEAD 
                                                   Max.-Head-Change                         Max.-Flux-Residual
  Residual-Control   Outer-Iter.   Inner-Iter.     Column Row Layer    Maximum-Head-Change  Column Row Layer    Maximum-Flux-Residual          L2-NORM 
          0                 1           2             4    7     1       0.9701116530E-02       4    7    1         0.5115543024E+00      0.1122128502E+01
          0                 2           2             4    7     1      -0.9436561274E-03       4    7    1        -0.5115556753E-01      0.1116504036E+00
          0                 3           1             4    7     1       0.6425946437E-04       4    7    1         0.3580889975E-02      0.7821438149E-02

    ------------------------------------------------
       NWT REQUIRED            3 OUTER ITERATIONS 
       AND A TOTAL OF          5 INNER ITERATIONS.
    ------------------------------------------------

 NO OUTPUT CONTROL FOR STRESS PERIOD   23   TIME STEP   27
 
 SOLVING FOR HEAD 
                                                   Max.-Head-Change                         Max.-Flux-Residual
  Residual-Control   Outer-Iter.   Inner-Iter.     Column Row Layer    Maximum-Head-Change  Column Row Layer    Maximum-Flux-Residual          L2-NORM 
          0                 1           2             4    7     1       0.9566621000E-02       4    7    1         0.5044418569E+00      0.1105361797E+01
          0                 2           2             4    7     1      -0.9305733284E-03       4    7    1        -0.5044431951E-01      0.1099783128E+00
          0                 3           1             4    7     1       0.6336857482E-04       4    7    1         0.3531102615E-02      0.7706681471E-02

    ------------------------------------------------
       NWT REQUIRED            3 OUTER ITERATIONS 
       AND A TOTAL OF          5 INNER ITERATIONS.
    ------------------------------------------------

 NO OUTPUT CONTROL FOR STRESS PERIOD   23   TIME STEP   28
 
 SOLVING FOR HEAD 
                                                   Max.-Head-Change                         Max.-Flux-Residual
  Residual-Control   Outer-Iter.   Inner-Iter.     Column Row Layer    Maximum-Head-Change  Column Row Layer    Maximum-Flux-Residual          L2-NORM 
          0                 1           2             4    7     1       0.9434388405E-02       4    7    1         0.4974483160E+00      0.1089106402E+01
          0                 2           2             4    7     1      -0.9177106530E-03       4    7    1        -0.4974496203E-01      0.1083552501E+00
          0                 3           1             4    7     1       0.6249267520E-04       4    7    1         0.3482147626E-02      0.7594002040E-02

    ------------------------------------------------
       NWT REQUIRED            3 OUTER ITERATIONS 
       AND A TOTAL OF          5 INNER ITERATIONS.
    ------------------------------------------------

 NO OUTPUT CONTROL FOR STRESS PERIOD   23   TIME STEP   29
 
 SOLVING FOR HEAD 
                                                   Max.-Head-Change                         Max.-Flux-Residual
  Residual-Control   Outer-Iter.   Inner-Iter.     Column Row Layer    Maximum-Head-Change  Column Row Layer    Maximum-Flux-Residual          L2-NORM 
          0                 1           2             4    7     1       0.9304386588E-02       4    7    1         0.4905721945E+00      0.1073345955E+01
          0                 2           2             4    7     1      -0.9050649721E-03       4    7    1        -0.4905734657E-01      0.1067810546E+00
          0                 3           1             4    7     1       0.6163155157E-04       4    7    1         0.3434014546E-02      0.7484316220E-02

    ------------------------------------------------
       NWT REQUIRED            3 OUTER ITERATIONS 
       AND A TOTAL OF          5 INNER ITERATIONS.
    ------------------------------------------------

 NO OUTPUT CONTROL FOR STRESS PERIOD   23   TIME STEP   30



 STREAM LISTING     PERIOD     23   STEP       30

 LAYER ROW COL. STREAM  RCH.  FLOW INTO     FLOW TO   FLOW OUT OF   OVRLND.     DIRECT     STREAM       STREAM     STREAM     STREAM   STREAMBED  STREAMBED
                SEG.NO.  NO.  STRM. RCH.    AQUIFER    STRM. RCH.    RUNOFF     PRECIP       ET          HEAD       DEPTH      WIDTH   CONDCTNC.   GRADIENT

   1    1    1     1     1    2.2000E+01  2.3088E-01   2.1769E+01  0.000E+00  0.000E+00  0.000E+00  1.09418E+03  1.132E+00  1.242E+01  5.588E-02  1.377E+00
   1    2    2     1     2    2.1769E+01  3.5689E-01   2.1412E+01  0.000E+00  0.000E+00  0.000E+00  1.08919E+03  1.127E+00  1.235E+01  8.648E-02  1.376E+00
   1    3    3     1     3    2.1412E+01  3.0372E-01   2.1109E+01  0.000E+00  0.000E+00  0.000E+00  1.08354E+03  1.121E+00  1.228E+01  7.369E-02  1.374E+00
   1    3    4     1     4    2.1109E+01  2.7914E-01   2.0829E+01  0.000E+00  0.000E+00  0.000E+00  1.07852E+03  1.117E+00  1.222E+01  6.781E-02  1.372E+00
   1    4    5     2     1    1.8829E+01  3.1306E-01   1.8516E+01  0.000E+00  0.000E+00  0.000E+00  1.07295E+03  1.014E+00  1.200E+01  7.800E-02  1.338E+00
   1    5    6     2     2    1.8516E+01  2.4027E-01   1.8276E+01  0.000E+00  0.000E+00  0.000E+00  1.06751E+03  1.005E+00  1.200E+01  6.000E-02  1.335E+00
   1    6    6     2     3    1.8276E+01  2.3980E-01   1.8036E+01  0.000E+00  0.000E+00  0.000E+00  1.06279E+03  9.967E-01  1.200E+01  6.000E-02  1.332E+00
   1    7    6     2     4    1.8036E+01  2.3933E-01   1.7797E+01  0.000E+00  0.000E+00  0.000E+00  1.05806E+03  9.888E-01  1.200E+01  6.000E-02  1.330E+00
   1    8    6     2     5    1.7797E+01  2.3885E-01   1.7558E+01  0.000E+00  0.000E+00  0.000E+00  1.05334E+03  9.808E-01  1.200E+01  6.000E-02  1.327E+00
   1    3    5     3     1    2.0000E+00  2.8252E-01   1.7175E+00  0.000E+00  0.000E+00  0.000E+00  1.07555E+03  1.909E+00  9.636E+00  7.227E-02  1.955E+00
   1    3    6     3     2    1.7175E+00  2.4905E-01   1.4684E+00  0.000E+00  0.000E+00  0.000E+00  1.07264E+03  1.727E+00  8.909E+00  6.682E-02  1.864E+00
   1    3    7     3     3    1.4684E+00  1.9718E-01   1.2712E+00  0.000E+00  0.000E+00  0.000E+00  1.06987E+03  1.555E+00  8.218E+00  5.547E-02  1.777E+00
   1    4    8     3     4    1.2712E+00  2.2567E-01   1.0456E+00  0.000E+00  0.000E+00  0.000E+00  1.06682E+03  1.364E+00  7.455E+00  6.709E-02  1.682E+00
   1    5    8     3     5    1.0456E+00  1.5790E-01   8.8768E-01  0.000E+00  0.000E+00  0.000E+00  1.06362E+03  1.164E+00  6.655E+00  4.991E-02  1.582E+00
   1    6    8     3     6    8.8768E-01  5.5980E-02   8.3170E-01  0.000E+00  0.000E+00  0.000E+00  1.06158E+03  1.036E+00  6.145E+00  1.844E-02  1.518E+00
   1    5   10     4     1    1.0000E+01  9.0919E-02   9.9091E+00  0.000E+00  0.000E+00  0.000E+00  1.07836E+03  6.368E-01  1.000E+01  2.500E-02  1.212E+00
   1    5    9     4     2    9.9091E+00  1.8158E-01   9.7275E+00  0.000E+00  0.000E+00  0.000E+00  1.07154E+03  6.315E-01  1.000E+01  5.000E-02  1.211E+00
   1    6    8     4     3    9.7275E+00  1.2689E-01   9.6006E+00  0.000E+00  0.000E+00  0.000E+00  1.06381E+03  6.256E-01  1.000E+01  3.500E-02  1.209E+00
   1    6    8     5     1    1.0432E+01  2.2686E-01   1.0205E+01  0.000E+00  0.000E+00  0.000E+00  1.05868E+03  6.790E-01  1.542E+01  6.166E-02  1.226E+00
   1    7    7     5     2    1.0205E+01  2.7894E-01   9.9265E+00  0.000E+00  0.000E+00  0.000E+00  1.05417E+03  6.732E-01  1.519E+01  7.594E-02  1.224E+00
   1    8    7     5     3    9.9265E+00  1.9221E-01   9.7343E+00  0.000E+00  0.000E+00  0.000E+00  1.04992E+03  6.676E-01  1.497E+01  5.241E-02  1.223E+00
   1    8    6     5     4    9.7343E+00  1.3577E-01   9.5985E+00  0.000E+00  0.000E+00  0.000E+00  1.04691E+03  6.637E-01  1.482E+01  3.706E-02  1.221E+00
   1    9    6     6     1    2.7157E+01  2.5677E-01   2.6900E+01  0.000E+00  0.000E+00  0.000E+00  1.04401E+03  1.280E+00  1.200E+01  6.000E-02  1.427E+00
   1   10    7     6     2    2.6900E+01  2.5634E-01   2.6643E+01  0.000E+00  0.000E+00  0.000E+00  1.03945E+03  1.272E+00  1.200E+01  6.000E-02  1.424E+00
   1   11    7     6     3    2.6643E+01  2.5590E-01   2.6388E+01  0.000E+00  0.000E+00  0.000E+00  1.03490E+03  1.265E+00  1.200E+01  6.000E-02  1.422E+00
   1   12    7     6     4    2.6388E+01  2.5546E-01   2.6132E+01  0.000E+00  0.000E+00  0.000E+00  1.03035E+03  1.258E+00  1.200E+01  6.000E-02  1.419E+00
   1   13    7     6     5    2.6132E+01  2.6298E-03   2.6130E+01  0.000E+00  0.000E+00  0.000E+00  1.02716E+03  1.254E+00  1.200E+01  2.400E-02  3.653E-02
   1   14    9     7     1    1.5000E+02  1.3336E+00   1.4867E+02  0.000E+00  0.000E+00  0.000E+00  1.03987E+03  2.288E+00  5.529E+01  5.593E-01  7.948E-01
   1   13    8     7     2    1.4867E+02  1.8357E+00   1.4683E+02  0.000E+00  0.000E+00  0.000E+00  1.03478E+03  2.279E+00  5.526E+01  6.148E-01  9.953E-01
   1   13    7     7     3    1.4683E+02  1.4723E+00   1.4536E+02  0.000E+00  0.000E+00  0.000E+00  1.02969E+03  2.270E+00  5.522E+01  5.585E-01  8.788E-01
   1   13    6     8     1    1.7149E+02  9.4883E-01   1.7054E+02  0.000E+00  0.000E+00  0.000E+00  1.02483E+03  2.959E+00  4.290E+01  4.372E-01  7.234E-01
   1   13    5     8     2    1.7054E+02  2.0990E-01   1.7033E+02  0.000E+00  0.000E+00  0.000E+00  1.01858E+03  2.955E+00  4.285E+01  4.366E-01  1.602E-01
   1   13    4     8     3    1.7033E+02 -2.3956E+00   1.7272E+02  0.000E+00  0.000E+00  0.000E+00  1.01234E+03  2.962E+00  4.295E+01  4.377E+00 -1.824E-01
   1   13    3     8     4    1.7272E+02 -3.6193E+00   1.7634E+02  0.000E+00  0.000E+00  0.000E+00  1.00611E+03  2.981E+00  4.323E+01  4.405E+00 -2.739E-01
   1   13    2     8     5    1.7634E+02 -2.5207E+00   1.7886E+02  0.000E+00  0.000E+00  0.000E+00  9.99876E+02  3.001E+00  4.352E+01  4.434E+00 -1.895E-01
   1   13    1     8     6    1.7886E+02 -1.8511E+00   1.8072E+02  0.000E+00  0.000E+00  0.000E+00  9.94890E+02  3.015E+00  4.372E+01  2.673E+00 -2.308E-01
   1    8    6     9     1    0.0000E+00  0.0000E+00   0.0000E+00  0.000E+00  0.000E+00  0.000E+00  1.07875E+03  0.000E+00  4.000E+00  0.000E+00  1.000E+00
   1    8    5     9     2    0.0000E+00  0.0000E+00   0.0000E+00  0.000E+00  0.000E+00  0.000E+00  1.07825E+03  0.000E+00  4.000E+00  0.000E+00  1.000E+00





UNSATURATED ZONE PACKAGE VOLUMETRIC BUDGET FOR  TIME STEP    30 STRESS PERIOD   23
  ------------------------------------------------------------------------------



     CUMULATIVE VOLUMES      L**3       RATES FOR THIS TIME STEP      L**3/T
     ------------------                 ------------------------

           IN:                                      IN:
           ---                                      ---
        INFILTRATION =   340660850.8621          INFILTRATION =           0.8475

          OUT:                                     OUT:
          ----                                     ----
              UZF ET =   198088484.8602                UZF ET =           0.0217
        UZF RECHARGE =    12859972.3652          UZF RECHARGE =           0.0494

            IN - OUT =   129712393.6367              IN - OUT =           0.7764

          STORAGE:                                 STORAGE:
          --------                                 --------
      STORAGE CHANGE =   129862335.1780        STORAGE CHANGE =           0.7764

 PERCENT DISCREPANCY IS DIFFERENCE BETWEEN IN-OUT MINUS CHANGE IN STORAGE
 DIVIDED BY THE AVERAGE OF IN AND OUT TIMES 100

 PERCENT DISCREPANCY =          -0.01     PERCENT DISCREPANCY =          -0.00






1
  VOLUMETRIC BUDGET FOR ENTIRE MODEL AT END OF TIME STEP   30, STRESS PERIOD  23
  ------------------------------------------------------------------------------

     CUMULATIVE VOLUMES      L**3       RATES FOR THIS TIME STEP      L**3/T
     ------------------                 ------------------------

           IN:                                      IN:
           ---                                      ---
               AWU WELLS =   168013232.0000                 AWU WELLS =           0.0000
      DIVERSION SEGMENTS =   123574016.0000        DIVERSION SEGMENTS =           0.0000
           GW IRRIGATION =           0.0000             GW IRRIGATION =           0.0000
           SW IRRIGATION =           0.0000             SW IRRIGATION =           0.0000
        SYSTEM LOSSES GW =           0.0000          SYSTEM LOSSES GW =           0.0000
        SYSTEM LOSSES SW =           0.0000          SYSTEM LOSSES SW =           0.0000

                TOTAL IN =   291587264.0000                  TOTAL IN =           0.0000

          OUT:                                     OUT:
          ----                                     ----
               AWU WELLS =           0.0000                 AWU WELLS =           0.0000
      DIVERSION SEGMENTS =           0.0000        DIVERSION SEGMENTS =           0.0000
           GW IRRIGATION =   168013232.0000             GW IRRIGATION =           0.0000
           SW IRRIGATION =   123576472.0000             SW IRRIGATION =           0.0000
        SYSTEM LOSSES GW =           0.0000          SYSTEM LOSSES GW =           0.0000
        SYSTEM LOSSES SW =           0.0000          SYSTEM LOSSES SW =           0.0000

               TOTAL OUT =   291589696.0000                 TOTAL OUT =           0.0000

                IN - OUT =       -2432.0000                  IN - OUT =           0.0000

     PERCENT DISCREPANCY =          -0.00         PERCENT DISCREPANCY =           0.00



1
  VOLUMETRIC BUDGET FOR ENTIRE MODEL AT END OF TIME STEP   30, STRESS PERIOD  23
  ------------------------------------------------------------------------------

     CUMULATIVE VOLUMES      L**3       RATES FOR THIS TIME STEP      L**3/T
     ------------------                 ------------------------

           IN:                                      IN:
           ---                                      ---
             STORAGE     =   321762208.0000               STORAGE     =           2.4910
       CONSTANT HEAD     =           0.0000         CONSTANT HEAD     =           0.0000
     HEAD DEP BOUNDS     =    16539207.0000       HEAD DEP BOUNDS     =           0.2856
      STREAM LEAKAGE     =   729206272.0000        STREAM LEAKAGE     =          11.6708
        UZF RECHARGE     =    12859965.0000          UZF RECHARGE     =       4.9422E-02
               GW ET     =           0.0000                 GW ET     =           0.0000
     SURFACE LEAKAGE     =           0.0000       SURFACE LEAKAGE     =           0.0000
           AWU WELLS     =           0.0000             AWU WELLS     =           0.0000

                TOTAL IN =  1080367616.0000                  TOTAL IN =          14.4969

          OUT:                                     OUT:
          ----                                     ----
             STORAGE     =   241690272.0000               STORAGE     =           3.8126
       CONSTANT HEAD     =           0.0000         CONSTANT HEAD     =           0.0000
     HEAD DEP BOUNDS     =    16745743.0000       HEAD DEP BOUNDS     =           0.2881
      STREAM LEAKAGE     =   543344704.0000        STREAM LEAKAGE     =          10.3866
        UZF RECHARGE     =           0.0000          UZF RECHARGE     =           0.0000
               GW ET     =   110584472.0000                 GW ET     =       9.9016E-03
     SURFACE LEAKAGE     =           0.0000       SURFACE LEAKAGE     =           0.0000
           AWU WELLS     =   168013232.0000             AWU WELLS     =           0.0000

               TOTAL OUT =  1080378368.0000                 TOTAL OUT =          14.4972

                IN - OUT =      -10752.0000                  IN - OUT =      -3.2711E-04

     PERCENT DISCREPANCY =          -0.00         PERCENT DISCREPANCY =          -0.00






         TIME SUMMARY AT END OF TIME STEP   30 IN STRESS PERIOD   23
                    SECONDS     MINUTES      HOURS       DAYS        YEARS
                    -----------------------------------------------------------
   TIME STEP LENGTH  87600.      1460.0      24.333      1.0139     2.77588E-03
 STRESS PERIOD TIME 2.62800E+06  43800.      730.00      30.417     8.32763E-02
         TOTAL TIME 5.79024E+07 9.65040E+05  16084.      670.17      1.8348    
1
1
                            STRESS PERIOD NO.   24, LENGTH =   2628000.    
                            -----------------------------------------------

                              NUMBER OF TIME STEPS =    30

                               MULTIPLIER FOR DELT =     1.000

                            INITIAL TIME STEP SIZE =   87600.00    

 REUSING NON-PARAMETER GHB CELLS FROM LAST STRESS PERIOD

      2 GHB CELLS

 REUSING STREAM SEGMENT DATA FROM LAST STRESS PERIOD



            AREAL INFILTRATION RATE
 READING ON UNIT   19 WITH FORMAT: (10F4.0)            

            1           2           3           4           5           6           7           8           9          10
 ........................................................................................................................
   1   1.0000E-10  2.0000E-10   0.000       0.000       0.000       0.000       0.000       0.000       0.000       0.000    
   2   2.0000E-10  1.0000E-10  2.0000E-10   0.000       0.000      8.0000E-10  8.0000E-10  5.0000E-10   0.000       0.000    
   3    0.000      5.0000E-10  1.0000E-10  1.0000E-10  8.0000E-10  8.0000E-10  5.0000E-10  5.0000E-10   0.000       0.000    
   4   8.0000E-10  5.0000E-10  1.0000E-10  1.0000E-10  1.0000E-10  1.0000E-10  1.0000E-10  1.0000E-10  2.0000E-10   0.000    
   5   8.0000E-10  5.0000E-10  1.0000E-10  1.0000E-10  1.0000E-10  1.0000E-10  1.0000E-10  1.0000E-10  1.0000E-10  1.0000E-10
   6   8.0000E-10  5.0000E-10  5.0000E-10  2.0000E-10  2.0000E-10  1.0000E-10  1.0000E-10  1.0000E-10  1.0000E-10  5.0000E-10
   7   8.0000E-10  5.0000E-10  5.0000E-10  2.0000E-10  2.0000E-10  1.0000E-10  1.0000E-10  2.0000E-10  2.0000E-10   0.000    
   8    0.000      5.0000E-10  5.0000E-10  2.0000E-10  2.0000E-10  1.0000E-10  1.0000E-10  2.0000E-10  5.0000E-10   0.000    
   9    0.000      5.0000E-10  5.0000E-10  2.0000E-10  2.0000E-10  1.0000E-10  1.0000E-10  2.0000E-10  5.0000E-10   0.000    
  10    0.000      5.0000E-10  5.0000E-10  2.0000E-10  2.0000E-10  1.0000E-10  1.0000E-10  2.0000E-10  5.0000E-10  8.0000E-10
  11    0.000      1.0000E-10  1.0000E-10  1.0000E-10  1.0000E-10  1.0000E-10  1.0000E-10  2.0000E-10  5.0000E-10   0.000    
  12   1.0000E-10  1.0000E-10  1.0000E-10  1.0000E-10  1.0000E-10  1.0000E-10  1.0000E-10  1.0000E-10  2.0000E-10   0.000    
  13   1.0000E-10  1.0000E-10  2.0000E-10  2.0000E-10  2.0000E-10  2.0000E-10  2.0000E-10  1.0000E-10  1.0000E-10   0.000    
  14    0.000      2.0000E-10  5.0000E-10  5.0000E-10  5.0000E-10  5.0000E-10  5.0000E-10  2.0000E-10  1.0000E-10   0.000    
  15    0.000       0.000      8.0000E-10  8.0000E-10  8.0000E-10  8.0000E-10   0.000       0.000       0.000       0.000    

                  ET RATE =  1.000000E-10

 USING ET EXTINCTION DEPTH FROM PREVIOUS STRESS PERIOD. CURRENT PERIOD IS:      24

 USING EXTINCTION WATER CONTENT FROM PREVIOUS STRESS PERIOD. CURRENT PERIOD IS:      24

 PROCESSING AWU STRESS PERIOD DATA

 READING AWU STRESS PERIOD DATA

 READING IRRIGATION STREAM

 READING IRRIGATION WELL

 READING SUPPLEMENTAL WEL

 END PROCESSING AWU STRESS PERIOD DATA OPTIONS
 
 SOLVING FOR HEAD 
                                                   Max.-Head-Change                         Max.-Flux-Residual
  Residual-Control   Outer-Iter.   Inner-Iter.     Column Row Layer    Maximum-Head-Change  Column Row Layer    Maximum-Flux-Residual          L2-NORM 
          0                 1           2             4    7     1       0.9176849680E-02       4    7    1         0.4838266226E+00      0.1058043834E+01
          0                 2           2             4    7     1      -0.8926590615E-03       4    7    1        -0.4838278616E-01      0.1052528919E+00
          0                 3           1             4    7     1       0.6078675580E-04       4    7    1         0.3386795345E-02      0.7378196508E-02

    ------------------------------------------------
       NWT REQUIRED            3 OUTER ITERATIONS 
       AND A TOTAL OF          5 INNER ITERATIONS.
    ------------------------------------------------

 NO OUTPUT CONTROL FOR STRESS PERIOD   24   TIME STEP    1
 
 SOLVING FOR HEAD 
                                                   Max.-Head-Change                         Max.-Flux-Residual
  Residual-Control   Outer-Iter.   Inner-Iter.     Column Row Layer    Maximum-Head-Change  Column Row Layer    Maximum-Flux-Residual          L2-NORM 
          0                 1           2             4    7     1       0.9051187103E-02       4    7    1         0.4771793527E+00      0.1040103557E+01
          0                 2           2             4    7     1      -0.8804354719E-03       4    7    1        -0.4771805601E-01      0.1034941348E+00
          0                 3           1             4    7     1       0.5995437472E-04       4    7    1         0.3340264212E-02      0.7257549734E-02

    ------------------------------------------------
       NWT REQUIRED            3 OUTER ITERATIONS 
       AND A TOTAL OF          5 INNER ITERATIONS.
    ------------------------------------------------

 NO OUTPUT CONTROL FOR STRESS PERIOD   24   TIME STEP    2
 
 SOLVING FOR HEAD 
                                                   Max.-Head-Change                         Max.-Flux-Residual
  Residual-Control   Outer-Iter.   Inner-Iter.     Column Row Layer    Maximum-Head-Change  Column Row Layer    Maximum-Flux-Residual          L2-NORM 
          0                 1           2             4    7     1       0.8927921491E-02       4    7    1         0.4706589363E+00      0.1025676816E+01
          0                 2           2             4    7     1      -0.8684723276E-03       4    7    1        -0.4706601127E-01      0.1021006070E+00
          0                 3           1             4    7     1       0.5913972946E-04       4    7    1         0.3294621102E-02      0.7160937627E-02

    ------------------------------------------------
       NWT REQUIRED            3 OUTER ITERATIONS 
       AND A TOTAL OF          5 INNER ITERATIONS.
    ------------------------------------------------

 NO OUTPUT CONTROL FOR STRESS PERIOD   24   TIME STEP    3
 
 SOLVING FOR HEAD 
                                                   Max.-Head-Change                         Max.-Flux-Residual
  Residual-Control   Outer-Iter.   Inner-Iter.     Column Row Layer    Maximum-Head-Change  Column Row Layer    Maximum-Flux-Residual          L2-NORM 
          0                 1           2             4    7     1       0.8806358345E-02       4    7    1         0.4642318440E+00      0.1011889325E+01
          0                 2           2             4    7     1      -0.8566202271E-03       4    7    1        -0.4642329913E-01      0.1007016162E+00
          0                 3           1             4    7     1       0.5833264567E-04       4    7    1         0.3249631249E-02      0.7063298432E-02

    ------------------------------------------------
       NWT REQUIRED            3 OUTER ITERATIONS 
       AND A TOTAL OF          5 INNER ITERATIONS.
    ------------------------------------------------

 NO OUTPUT CONTROL FOR STRESS PERIOD   24   TIME STEP    4
 
 SOLVING FOR HEAD 
                                                   Max.-Head-Change                         Max.-Flux-Residual
  Residual-Control   Outer-Iter.   Inner-Iter.     Column Row Layer    Maximum-Head-Change  Column Row Layer    Maximum-Flux-Residual          L2-NORM 
          0                 1           2             4    7     1       0.8687109534E-02       4    7    1         0.4579255895E+00      0.9984003604E+00
          0                 2           2             4    7     1      -0.8450205269E-03       4    7    1        -0.4579267080E-01      0.9932187332E-01
          0                 3           1             4    7     1       0.5754274934E-04       4    7    1         0.3205487278E-02      0.6967161314E-02

    ------------------------------------------------
       NWT REQUIRED            3 OUTER ITERATIONS 
       AND A TOTAL OF          5 INNER ITERATIONS.
    ------------------------------------------------

 NO OUTPUT CONTROL FOR STRESS PERIOD   24   TIME STEP    5
 
 SOLVING FOR HEAD 
                                                   Max.-Head-Change                         Max.-Flux-Residual
  Residual-Control   Outer-Iter.   Inner-Iter.     Column Row Layer    Maximum-Head-Change  Column Row Layer    Maximum-Flux-Residual          L2-NORM 
          0                 1           2             4    7     1       0.8569568500E-02       4    7    1         0.4517083713E+00      0.9851994065E+00
          0                 2           2             4    7     1      -0.8335869474E-03       4    7    1        -0.4517094614E-01      0.9799928382E-01
          0                 3           1             4    7     1       0.5676416575E-04       4    7    1         0.3161966578E-02      0.6874877871E-02

    ------------------------------------------------
       NWT REQUIRED            3 OUTER ITERATIONS 
       AND A TOTAL OF          5 INNER ITERATIONS.
    ------------------------------------------------

 NO OUTPUT CONTROL FOR STRESS PERIOD   24   TIME STEP    6
 
 SOLVING FOR HEAD 
                                                   Max.-Head-Change                         Max.-Flux-Residual
  Residual-Control   Outer-Iter.   Inner-Iter.     Column Row Layer    Maximum-Head-Change  Column Row Layer    Maximum-Flux-Residual          L2-NORM 
          0                 1           2             4    7     1       0.8454264508E-02       4    7    1         0.4456093667E+00      0.9723325101E+00
          0                 2           2             4    7     1      -0.8223709722E-03       4    7    1        -0.4456104294E-01      0.9671006063E-01
          0                 3           1             4    7     1       0.5600039957E-04       4    7    1         0.3119273344E-02      0.6785021025E-02

    ------------------------------------------------
       NWT REQUIRED            3 OUTER ITERATIONS 
       AND A TOTAL OF          5 INNER ITERATIONS.
    ------------------------------------------------

 NO OUTPUT CONTROL FOR STRESS PERIOD   24   TIME STEP    7
 
 SOLVING FOR HEAD 
                                                   Max.-Head-Change                         Max.-Flux-Residual
  Residual-Control   Outer-Iter.   Inner-Iter.     Column Row Layer    Maximum-Head-Change  Column Row Layer    Maximum-Flux-Residual          L2-NORM 
          0                 1           2             4    7     1       0.8340876351E-02       4    7    1         0.4396116380E+00      0.9597812907E+00
          0                 2           2             4    7     1      -0.8113413565E-03       4    7    1        -0.4396126738E-01      0.9545227034E-01
          0                 3           1             4    7     1       0.5524932427E-04       4    7    1         0.3077289062E-02      0.6697282590E-02

    ------------------------------------------------
       NWT REQUIRED            3 OUTER ITERATIONS 
       AND A TOTAL OF          5 INNER ITERATIONS.
    ------------------------------------------------

 NO OUTPUT CONTROL FOR STRESS PERIOD   24   TIME STEP    8
 
 SOLVING FOR HEAD 
                                                   Max.-Head-Change                         Max.-Flux-Residual
  Residual-Control   Outer-Iter.   Inner-Iter.     Column Row Layer    Maximum-Head-Change  Column Row Layer    Maximum-Flux-Residual          L2-NORM 
          0                 1           2             4    7     1       0.8229383044E-02       4    7    1         0.4337133182E+00      0.9475470626E+00
          0                 2           2             4    7     1      -0.8004960589E-03       4    7    1        -0.4337143277E-01      0.9422611931E-01
          0                 3           1             4    7     1       0.5451079977E-04       4    7    1         0.3036000651E-02      0.6611787007E-02

    ------------------------------------------------
       NWT REQUIRED            3 OUTER ITERATIONS 
       AND A TOTAL OF          5 INNER ITERATIONS.
    ------------------------------------------------

 NO OUTPUT CONTROL FOR STRESS PERIOD   24   TIME STEP    9
 
 SOLVING FOR HEAD 
                                                   Max.-Head-Change                         Max.-Flux-Residual
  Residual-Control   Outer-Iter.   Inner-Iter.     Column Row Layer    Maximum-Head-Change  Column Row Layer    Maximum-Flux-Residual          L2-NORM 
          0                 1           2             4    7     1       0.8120024276E-02       4    7    1         0.4279281199E+00      0.9356082539E+00
          0                 2           2             4    7     1      -0.7898583949E-03       4    7    1        -0.4279291037E-01      0.9302933505E-01
          0                 3           1             4    7     1       0.5378641507E-04       4    7    1         0.2995504093E-02      0.6528449124E-02

    ------------------------------------------------
       NWT REQUIRED            3 OUTER ITERATIONS 
       AND A TOTAL OF          5 INNER ITERATIONS.
    ------------------------------------------------

 NO OUTPUT CONTROL FOR STRESS PERIOD   24   TIME STEP   10
 
 SOLVING FOR HEAD 
                                                   Max.-Head-Change                         Max.-Flux-Residual
  Residual-Control   Outer-Iter.   Inner-Iter.     Column Row Layer    Maximum-Head-Change  Column Row Layer    Maximum-Flux-Residual          L2-NORM 
          0                 1           2             4    7     1       0.8012210638E-02       4    7    1         0.4222240763E+00      0.9239410756E+00
          0                 2           2             4    7     1      -0.7793710304E-03       4    7    1        -0.4222250350E-01      0.9185952374E-01
          0                 3           1             4    7     1       0.5307226483E-04       4    7    1         0.2955575617E-02      0.6446734784E-02

    ------------------------------------------------
       NWT REQUIRED            3 OUTER ITERATIONS 
       AND A TOTAL OF          5 INNER ITERATIONS.
    ------------------------------------------------

 NO OUTPUT CONTROL FOR STRESS PERIOD   24   TIME STEP   11
 
 SOLVING FOR HEAD 
                                                   Max.-Head-Change                         Max.-Flux-Residual
  Residual-Control   Outer-Iter.   Inner-Iter.     Column Row Layer    Maximum-Head-Change  Column Row Layer    Maximum-Flux-Residual          L2-NORM 
          0                 1           2             4    7     1       0.7906472610E-02       4    7    1         0.4166298094E+00      0.9125558193E+00
          0                 2           2             4    7     1      -0.7690855675E-03       4    7    1        -0.4166307438E-01      0.9071784031E-01
          0                 3           1             4    7     1       0.5237186318E-04       4    7    1         0.2916415588E-02      0.6367103619E-02

    ------------------------------------------------
       NWT REQUIRED            3 OUTER ITERATIONS 
       AND A TOTAL OF          5 INNER ITERATIONS.
    ------------------------------------------------

 NO OUTPUT CONTROL FOR STRESS PERIOD   24   TIME STEP   12
 
 SOLVING FOR HEAD 
                                                   Max.-Head-Change                         Max.-Flux-Residual
  Residual-Control   Outer-Iter.   Inner-Iter.     Column Row Layer    Maximum-Head-Change  Column Row Layer    Maximum-Flux-Residual          L2-NORM 
          0                 1           2             4    7     1       0.7802496982E-02       4    7    1         0.4111284406E+00      0.9014318596E+00
          0                 2           2             4    7     1      -0.7589715389E-03       4    7    1        -0.4111293511E-01      0.8960237124E-01
          0                 3           1             4    7     1       0.5168313568E-04       4    7    1         0.2877905851E-02      0.6289294218E-02

    ------------------------------------------------
       NWT REQUIRED            3 OUTER ITERATIONS 
       AND A TOTAL OF          5 INNER ITERATIONS.
    ------------------------------------------------

 NO OUTPUT CONTROL FOR STRESS PERIOD   24   TIME STEP   13
 
 SOLVING FOR HEAD 
                                                   Max.-Head-Change                         Max.-Flux-Residual
  Residual-Control   Outer-Iter.   Inner-Iter.     Column Row Layer    Maximum-Head-Change  Column Row Layer    Maximum-Flux-Residual          L2-NORM 
          0                 1           2             4    7     1       0.7700256384E-02       4    7    1         0.4057185194E+00      0.8905572887E+00
          0                 2           2             4    7     1      -0.7490262823E-03       4    7    1        -0.4057194068E-01      0.8851157513E-01
          0                 3           1             4    7     1       0.5100590103E-04       4    7    1         0.2840036245E-02      0.6213210789E-02

    ------------------------------------------------
       NWT REQUIRED            3 OUTER ITERATIONS 
       AND A TOTAL OF          5 INNER ITERATIONS.
    ------------------------------------------------

 NO OUTPUT CONTROL FOR STRESS PERIOD   24   TIME STEP   14
 
 SOLVING FOR HEAD 
                                                   Max.-Head-Change                         Max.-Flux-Residual
  Residual-Control   Outer-Iter.   Inner-Iter.     Column Row Layer    Maximum-Head-Change  Column Row Layer    Maximum-Flux-Residual          L2-NORM 
          0                 1           2             4    7     1       0.7599715383E-02       4    7    1         0.4003986256E+00      0.8799252717E+00
          0                 2           2             4    7     1      -0.7392463507E-03       4    7    1        -0.4003994902E-01      0.8744500083E-01
          0                 3           1             4    7     1       0.5033992421E-04       4    7    1         0.2802796831E-02      0.6138842473E-02

    ------------------------------------------------
       NWT REQUIRED            3 OUTER ITERATIONS 
       AND A TOTAL OF          5 INNER ITERATIONS.
    ------------------------------------------------

 NO OUTPUT CONTROL FOR STRESS PERIOD   24   TIME STEP   15
 
 SOLVING FOR HEAD 
                                                   Max.-Head-Change                         Max.-Flux-Residual
  Residual-Control   Outer-Iter.   Inner-Iter.     Column Row Layer    Maximum-Head-Change  Column Row Layer    Maximum-Flux-Residual          L2-NORM 
          0                 1           2             4    7     1       0.7501122797E-02       4    7    1         0.3951817231E+00      0.8695412916E+00
          0                 2           2             4    7     1      -0.7296559479E-03       4    7    1        -0.3951825658E-01      0.8640318109E-01
          0                 3           1             4    7     1       0.4968685343E-04       4    7    1         0.2766278357E-02      0.6066163504E-02

    ------------------------------------------------
       NWT REQUIRED            3 OUTER ITERATIONS 
       AND A TOTAL OF          5 INNER ITERATIONS.
    ------------------------------------------------

 NO OUTPUT CONTROL FOR STRESS PERIOD   24   TIME STEP   16
 
 SOLVING FOR HEAD 
                                                   Max.-Head-Change                         Max.-Flux-Residual
  Residual-Control   Outer-Iter.   Inner-Iter.     Column Row Layer    Maximum-Head-Change  Column Row Layer    Maximum-Flux-Residual          L2-NORM 
          0                 1           2             4    7     1       0.7404160718E-02       4    7    1         0.3900511179E+00      0.8593718183E+00
          0                 2           2             4    7     1      -0.7202241492E-03       4    7    1        -0.3900519388E-01      0.8538284417E-01
          0                 3           1             4    7     1       0.4904458323E-04       4    7    1         0.2730363962E-02      0.5995061184E-02

    ------------------------------------------------
       NWT REQUIRED            3 OUTER ITERATIONS 
       AND A TOTAL OF          5 INNER ITERATIONS.
    ------------------------------------------------

 NO OUTPUT CONTROL FOR STRESS PERIOD   24   TIME STEP   17
 
 SOLVING FOR HEAD 
                                                   Max.-Head-Change                         Max.-Flux-Residual
  Residual-Control   Outer-Iter.   Inner-Iter.     Column Row Layer    Maximum-Head-Change  Column Row Layer    Maximum-Flux-Residual          L2-NORM 
          0                 1           2             4    7     1       0.7308804897E-02       4    7    1         0.3850051164E+00      0.8494266930E+00
          0                 2           2             4    7     1      -0.7109485976E-03       4    7    1        -0.3850059167E-01      0.8438459284E-01
          0                 3           1             4    7     1       0.4841295268E-04       4    7    1         0.2695041814E-02      0.5925387490E-02

    ------------------------------------------------
       NWT REQUIRED            3 OUTER ITERATIONS 
       AND A TOTAL OF          5 INNER ITERATIONS.
    ------------------------------------------------

 NO OUTPUT CONTROL FOR STRESS PERIOD   24   TIME STEP   18
 
 SOLVING FOR HEAD 
                                                   Max.-Head-Change                         Max.-Flux-Residual
  Residual-Control   Outer-Iter.   Inner-Iter.     Column Row Layer    Maximum-Head-Change  Column Row Layer    Maximum-Flux-Residual          L2-NORM 
          0                 1           2             4    7     1       0.7215022760E-02       4    7    1         0.3800424606E+00      0.8396930686E+00
          0                 2           2             4    7     1      -0.7018261227E-03       4    7    1        -0.3800432403E-01      0.8340761821E-01
          0                 3           1             4    7     1       0.4779174688E-04       4    7    1         0.2660303103E-02      0.5857149470E-02

    ------------------------------------------------
       NWT REQUIRED            3 OUTER ITERATIONS 
       AND A TOTAL OF          5 INNER ITERATIONS.
    ------------------------------------------------

 NO OUTPUT CONTROL FOR STRESS PERIOD   24   TIME STEP   19
 
 SOLVING FOR HEAD 
                                                   Max.-Head-Change                         Max.-Flux-Residual
  Residual-Control   Outer-Iter.   Inner-Iter.     Column Row Layer    Maximum-Head-Change  Column Row Layer    Maximum-Flux-Residual          L2-NORM 
          0                 1           2             4    7     1       0.7123052889E-02       4    7    1         0.3751762638E+00      0.8301536374E+00
          0                 2           2             4    7     1      -0.6928799327E-03       4    7    1        -0.3751770237E-01      0.8245003759E-01
          0                 3           1             4    7     1       0.4718254467E-04       4    7    1         0.2626239590E-02      0.5790290239E-02

    ------------------------------------------------
       NWT REQUIRED            3 OUTER ITERATIONS 
       AND A TOTAL OF          5 INNER ITERATIONS.
    ------------------------------------------------

 NO OUTPUT CONTROL FOR STRESS PERIOD   24   TIME STEP   20
 
 SOLVING FOR HEAD 
                                                   Max.-Head-Change                         Max.-Flux-Residual
  Residual-Control   Outer-Iter.   Inner-Iter.     Column Row Layer    Maximum-Head-Change  Column Row Layer    Maximum-Flux-Residual          L2-NORM 
          0                 1           2             4    7     1       0.7032591058E-02       4    7    1         0.3703892985E+00      0.8208169547E+00
          0                 2           2             4    7     1      -0.6840804343E-03       4    7    1        -0.3703900390E-01      0.8151266096E-01
          0                 3           1             4    7     1       0.4658333149E-04       4    7    1         0.2592730674E-02      0.5725159239E-02

    ------------------------------------------------
       NWT REQUIRED            3 OUTER ITERATIONS 
       AND A TOTAL OF          5 INNER ITERATIONS.
    ------------------------------------------------

 NO OUTPUT CONTROL FOR STRESS PERIOD   24   TIME STEP   21
 
 SOLVING FOR HEAD 
                                                   Max.-Head-Change                         Max.-Flux-Residual
  Residual-Control   Outer-Iter.   Inner-Iter.     Column Row Layer    Maximum-Head-Change  Column Row Layer    Maximum-Flux-Residual          L2-NORM 
          0                 1           2             4    7     1       0.6943879126E-02       4    7    1         0.3656953866E+00      0.8116883708E+00
          0                 2           2             4    7     1      -0.6754511549E-03       4    7    1        -0.3656961085E-01      0.8059602766E-01
          0                 3           1             4    7     1       0.4599571010E-04       4    7    1         0.2559873180E-02      0.5661219546E-02

    ------------------------------------------------
       NWT REQUIRED            3 OUTER ITERATIONS 
       AND A TOTAL OF          5 INNER ITERATIONS.
    ------------------------------------------------

 NO OUTPUT CONTROL FOR STRESS PERIOD   24   TIME STEP   22
 
 SOLVING FOR HEAD 
                                                   Max.-Head-Change                         Max.-Flux-Residual
  Residual-Control   Outer-Iter.   Inner-Iter.     Column Row Layer    Maximum-Head-Change  Column Row Layer    Maximum-Flux-Residual          L2-NORM 
          0                 1           2             4    7     1       0.6856333974E-02       4    7    1         0.3610626655E+00      0.8027277688E+00
          0                 2           2             4    7     1      -0.6669353716E-03       4    7    1        -0.3610633688E-01      0.7969607173E-01
          0                 3           1             4    7     1       0.4541581704E-04       4    7    1         0.2527444013E-02      0.5598463999E-02

    ------------------------------------------------
       NWT REQUIRED            3 OUTER ITERATIONS 
       AND A TOTAL OF          5 INNER ITERATIONS.
    ------------------------------------------------

 NO OUTPUT CONTROL FOR STRESS PERIOD   24   TIME STEP   23
 
 SOLVING FOR HEAD 
                                                   Max.-Head-Change                         Max.-Flux-Residual
  Residual-Control   Outer-Iter.   Inner-Iter.     Column Row Layer    Maximum-Head-Change  Column Row Layer    Maximum-Flux-Residual          L2-NORM 
          0                 1           2             4    7     1       0.6770488980E-02       4    7    1         0.3565200949E+00      0.7939561603E+00
          0                 2           2             4    7     1      -0.6585849683E-03       4    7    1        -0.3565207806E-01      0.7881498962E-01
          0                 3           1             4    7     1       0.4484718584E-04       4    7    1         0.2495645890E-02      0.5537003561E-02

    ------------------------------------------------
       NWT REQUIRED            3 OUTER ITERATIONS 
       AND A TOTAL OF          5 INNER ITERATIONS.
    ------------------------------------------------

 NO OUTPUT CONTROL FOR STRESS PERIOD   24   TIME STEP   24
 
 SOLVING FOR HEAD 
                                                   Max.-Head-Change                         Max.-Flux-Residual
  Residual-Control   Outer-Iter.   Inner-Iter.     Column Row Layer    Maximum-Head-Change  Column Row Layer    Maximum-Flux-Residual          L2-NORM 
          0                 1           2             4    7     1       0.6686296949E-02       4    7    1         0.3520657425E+00      0.7853556890E+00
          0                 2           2             4    7     1      -0.6503953540E-03       4    7    1        -0.3520664110E-01      0.7795107257E-01
          0                 3           1             4    7     1       0.4428950361E-04       4    7    1         0.2464465314E-02      0.5476794829E-02

    ------------------------------------------------
       NWT REQUIRED            3 OUTER ITERATIONS 
       AND A TOTAL OF          5 INNER ITERATIONS.
    ------------------------------------------------

 NO OUTPUT CONTROL FOR STRESS PERIOD   24   TIME STEP   25
 
 SOLVING FOR HEAD 
                                                   Max.-Head-Change                         Max.-Flux-Residual
  Residual-Control   Outer-Iter.   Inner-Iter.     Column Row Layer    Maximum-Head-Change  Column Row Layer    Maximum-Flux-Residual          L2-NORM 
          0                 1           2             4    7     1       0.6603452885E-02       4    7    1         0.3476823546E+00      0.7769267887E+00
          0                 2           2             4    7     1      -0.6423368602E-03       4    7    1        -0.3476830060E-01      0.7710426457E-01
          0                 3           1             4    7     1       0.4374075036E-04       4    7    1         0.2433781476E-02      0.5417829618E-02

    ------------------------------------------------
       NWT REQUIRED            3 OUTER ITERATIONS 
       AND A TOTAL OF          5 INNER ITERATIONS.
    ------------------------------------------------

 NO OUTPUT CONTROL FOR STRESS PERIOD   24   TIME STEP   26
 
 SOLVING FOR HEAD 
                                                   Max.-Head-Change                         Max.-Flux-Residual
  Residual-Control   Outer-Iter.   Inner-Iter.     Column Row Layer    Maximum-Head-Change  Column Row Layer    Maximum-Flux-Residual          L2-NORM 
          0                 1           2             4    7     1       0.6521932021E-02       4    7    1         0.3433689101E+00      0.7686603576E+00
          0                 2           2             4    7     1      -0.6344070790E-03       4    7    1        -0.3433695452E-01      0.7627361393E-01
          0                 3           1             4    7     1       0.4320076159E-04       4    7    1         0.2403587251E-02      0.5359861304E-02

    ------------------------------------------------
       NWT REQUIRED            3 OUTER ITERATIONS 
       AND A TOTAL OF          5 INNER ITERATIONS.
    ------------------------------------------------

 NO OUTPUT CONTROL FOR STRESS PERIOD   24   TIME STEP   27
 
 SOLVING FOR HEAD 
                                                   Max.-Head-Change                         Max.-Flux-Residual
  Residual-Control   Outer-Iter.   Inner-Iter.     Column Row Layer    Maximum-Head-Change  Column Row Layer    Maximum-Flux-Residual          L2-NORM 
          0                 1           2             4    7     1       0.6441709544E-02       4    7    1         0.3391241239E+00      0.7605511212E+00
          0                 2           2             4    7     1      -0.6266035961E-03       4    7    1        -0.3391247430E-01      0.7545856160E-01
          0                 3           1             4    7     1       0.4266937377E-04       4    7    1         0.2373873649E-02      0.5302964478E-02

    ------------------------------------------------
       NWT REQUIRED            3 OUTER ITERATIONS 
       AND A TOTAL OF          5 INNER ITERATIONS.
    ------------------------------------------------

 NO OUTPUT CONTROL FOR STRESS PERIOD   24   TIME STEP   28
 
 SOLVING FOR HEAD 
                                                   Max.-Head-Change                         Max.-Flux-Residual
  Residual-Control   Outer-Iter.   Inner-Iter.     Column Row Layer    Maximum-Head-Change  Column Row Layer    Maximum-Flux-Residual          L2-NORM 
          0                 1           2             4    7     1       0.6363030949E-02       4    7    1         0.3349615141E+00      0.7525930830E+00
          0                 2           2             4    7     1      -0.6200472859E-03       4    7    1        -0.3357132282E-01      0.7468693665E-01
          0                 3           1             4    7     1       0.4222291189E-04       4    7    1         0.2349992928E-02      0.5249186053E-02

    ------------------------------------------------
       NWT REQUIRED            3 OUTER ITERATIONS 
       AND A TOTAL OF          5 INNER ITERATIONS.
    ------------------------------------------------

 NO OUTPUT CONTROL FOR STRESS PERIOD   24   TIME STEP   29
 
 SOLVING FOR HEAD 
                                                   Max.-Head-Change                         Max.-Flux-Residual
  Residual-Control   Outer-Iter.   Inner-Iter.     Column Row Layer    Maximum-Head-Change  Column Row Layer    Maximum-Flux-Residual          L2-NORM 
          0                 1           2             4    7     1       0.6282510911E-02       4    7    1         0.3308204483E+00      0.7447717440E+00
          0                 2           2             4    7     1      -0.6111180287E-03       4    7    1        -0.3308211506E-01      0.7387243622E-01
          0                 3           1             4    7     1       0.4161486323E-04       4    7    1         0.2315748405E-02      0.5192422368E-02

    ------------------------------------------------
       NWT REQUIRED            3 OUTER ITERATIONS 
       AND A TOTAL OF          5 INNER ITERATIONS.
    ------------------------------------------------

 NO OUTPUT CONTROL FOR STRESS PERIOD   24   TIME STEP   30



 STREAM LISTING     PERIOD     24   STEP       30

 LAYER ROW COL. STREAM  RCH.  FLOW INTO     FLOW TO   FLOW OUT OF   OVRLND.     DIRECT     STREAM       STREAM     STREAM     STREAM   STREAMBED  STREAMBED
                SEG.NO.  NO.  STRM. RCH.    AQUIFER    STRM. RCH.    RUNOFF     PRECIP       ET          HEAD       DEPTH      WIDTH   CONDCTNC.   GRADIENT

   1    1    1     1     1    2.1000E+01  2.2592E-01   2.0774E+01  0.000E+00  0.000E+00  0.000E+00  1.09416E+03  1.115E+00  1.220E+01  5.490E-02  1.372E+00
   1    2    2     1     2    2.0774E+01  3.4916E-01   2.0425E+01  0.000E+00  0.000E+00  0.000E+00  1.08917E+03  1.110E+00  1.214E+01  8.495E-02  1.370E+00
   1    3    3     1     3    2.0425E+01  2.9709E-01   2.0128E+01  0.000E+00  0.000E+00  0.000E+00  1.08352E+03  1.105E+00  1.206E+01  7.238E-02  1.368E+00
   1    3    4     1     4    2.0128E+01  2.7299E-01   1.9855E+01  0.000E+00  0.000E+00  0.000E+00  1.07851E+03  1.100E+00  1.200E+01  6.659E-02  1.367E+00
   1    4    5     2     1    1.7855E+01  3.1056E-01   1.7544E+01  0.000E+00  0.000E+00  0.000E+00  1.07292E+03  9.816E-01  1.200E+01  7.800E-02  1.327E+00
   1    5    6     2     2    1.7544E+01  2.3834E-01   1.7306E+01  0.000E+00  0.000E+00  0.000E+00  1.06748E+03  9.724E-01  1.200E+01  6.000E-02  1.324E+00
   1    6    6     2     3    1.7306E+01  2.3786E-01   1.7068E+01  0.000E+00  0.000E+00  0.000E+00  1.06276E+03  9.644E-01  1.200E+01  6.000E-02  1.321E+00
   1    7    6     2     4    1.7068E+01  2.3738E-01   1.6831E+01  0.000E+00  0.000E+00  0.000E+00  1.05803E+03  9.564E-01  1.200E+01  6.000E-02  1.319E+00
   1    8    6     2     5    1.6831E+01  2.3690E-01   1.6594E+01  0.000E+00  0.000E+00  0.000E+00  1.05331E+03  9.483E-01  1.200E+01  6.000E-02  1.316E+00
   1    3    5     3     1    2.0000E+00  2.8252E-01   1.7175E+00  0.000E+00  0.000E+00  0.000E+00  1.07555E+03  1.909E+00  9.636E+00  7.227E-02  1.955E+00
   1    3    6     3     2    1.7175E+00  2.4905E-01   1.4684E+00  0.000E+00  0.000E+00  0.000E+00  1.07264E+03  1.727E+00  8.909E+00  6.682E-02  1.864E+00
   1    3    7     3     3    1.4684E+00  1.9718E-01   1.2712E+00  0.000E+00  0.000E+00  0.000E+00  1.06987E+03  1.555E+00  8.218E+00  5.547E-02  1.777E+00
   1    4    8     3     4    1.2712E+00  2.2567E-01   1.0456E+00  0.000E+00  0.000E+00  0.000E+00  1.06682E+03  1.364E+00  7.455E+00  6.709E-02  1.682E+00
   1    5    8     3     5    1.0456E+00  1.5790E-01   8.8768E-01  0.000E+00  0.000E+00  0.000E+00  1.06362E+03  1.164E+00  6.655E+00  4.991E-02  1.582E+00
   1    6    8     3     6    8.8768E-01  5.5980E-02   8.3170E-01  0.000E+00  0.000E+00  0.000E+00  1.06158E+03  1.036E+00  6.145E+00  1.844E-02  1.518E+00
   1    5   10     4     1    1.0000E+01  9.0919E-02   9.9091E+00  0.000E+00  0.000E+00  0.000E+00  1.07836E+03  6.368E-01  1.000E+01  2.500E-02  1.212E+00
   1    5    9     4     2    9.9091E+00  1.8158E-01   9.7275E+00  0.000E+00  0.000E+00  0.000E+00  1.07154E+03  6.315E-01  1.000E+01  5.000E-02  1.211E+00
   1    6    8     4     3    9.7275E+00  1.2689E-01   9.6006E+00  0.000E+00  0.000E+00  0.000E+00  1.06381E+03  6.256E-01  1.000E+01  3.500E-02  1.209E+00
   1    6    8     5     1    1.0432E+01  2.2686E-01   1.0205E+01  0.000E+00  0.000E+00  0.000E+00  1.05868E+03  6.790E-01  1.542E+01  6.166E-02  1.226E+00
   1    7    7     5     2    1.0205E+01  2.7894E-01   9.9265E+00  0.000E+00  0.000E+00  0.000E+00  1.05417E+03  6.732E-01  1.519E+01  7.594E-02  1.224E+00
   1    8    7     5     3    9.9265E+00  1.9221E-01   9.7343E+00  0.000E+00  0.000E+00  0.000E+00  1.04992E+03  6.676E-01  1.497E+01  5.241E-02  1.223E+00
   1    8    6     5     4    9.7343E+00  1.3577E-01   9.5985E+00  0.000E+00  0.000E+00  0.000E+00  1.04691E+03  6.637E-01  1.482E+01  3.706E-02  1.221E+00
   1    9    6     6     1    2.6192E+01  2.5512E-01   2.5937E+01  0.000E+00  0.000E+00  0.000E+00  1.04398E+03  1.252E+00  1.200E+01  6.000E-02  1.417E+00
   1   10    7     6     2    2.5937E+01  2.5468E-01   2.5683E+01  0.000E+00  0.000E+00  0.000E+00  1.03943E+03  1.245E+00  1.200E+01  6.000E-02  1.415E+00
   1   11    7     6     3    2.5683E+01  2.5424E-01   2.5428E+01  0.000E+00  0.000E+00  0.000E+00  1.03487E+03  1.237E+00  1.200E+01  6.000E-02  1.412E+00
   1   12    7     6     4    2.5428E+01  2.5379E-01   2.5174E+01  0.000E+00  0.000E+00  0.000E+00  1.03032E+03  1.230E+00  1.200E+01  6.000E-02  1.410E+00
   1   13    7     6     5    2.5174E+01  1.5883E-03   2.5173E+01  0.000E+00  0.000E+00  0.000E+00  1.02714E+03  1.226E+00  1.200E+01  2.400E-02  2.206E-02
   1   14    9     7     1    1.5000E+02  1.3342E+00   1.4867E+02  0.000E+00  0.000E+00  0.000E+00  1.03987E+03  2.288E+00  5.529E+01  5.593E-01  7.952E-01
   1   13    8     7     2    1.4867E+02  1.8343E+00   1.4683E+02  0.000E+00  0.000E+00  0.000E+00  1.03478E+03  2.279E+00  5.526E+01  6.148E-01  9.946E-01
   1   13    7     7     3    1.4683E+02  1.4636E+00   1.4537E+02  0.000E+00  0.000E+00  0.000E+00  1.02969E+03  2.270E+00  5.522E+01  5.585E-01  8.736E-01
   1   13    6     8     1    1.7054E+02  9.2547E-01   1.6962E+02  0.000E+00  0.000E+00  0.000E+00  1.02483E+03  2.953E+00  4.281E+01  4.363E-01  7.071E-01
   1   13    5     8     2    1.6962E+02  1.7783E-01   1.6944E+02  0.000E+00  0.000E+00  0.000E+00  1.01857E+03  2.949E+00  4.276E+01  4.358E-01  1.360E-01
   1   13    4     8     3    1.6944E+02 -2.4746E+00   1.7191E+02  0.000E+00  0.000E+00  0.000E+00  1.01233E+03  2.957E+00  4.287E+01  4.369E+00 -1.888E-01
   1   13    3     8     4    1.7191E+02 -3.6649E+00   1.7558E+02  0.000E+00  0.000E+00  0.000E+00  1.00610E+03  2.976E+00  4.316E+01  4.398E+00 -2.778E-01
   1   13    2     8     5    1.7558E+02 -2.5677E+00   1.7814E+02  0.000E+00  0.000E+00  0.000E+00  9.99871E+02  2.996E+00  4.345E+01  4.427E+00 -1.933E-01
   1   13    1     8     6    1.7814E+02 -1.9509E+00   1.8010E+02  0.000E+00  0.000E+00  0.000E+00  9.94886E+02  3.011E+00  4.365E+01  2.669E+00 -2.436E-01
   1    8    6     9     1    0.0000E+00  0.0000E+00   0.0000E+00  0.000E+00  0.000E+00  0.000E+00  1.07875E+03  0.000E+00  4.000E+00  0.000E+00  1.000E+00
   1    8    5     9     2    0.0000E+00  0.0000E+00   0.0000E+00  0.000E+00  0.000E+00  0.000E+00  1.07825E+03  0.000E+00  4.000E+00  0.000E+00  1.000E+00





UNSATURATED ZONE PACKAGE VOLUMETRIC BUDGET FOR  TIME STEP    30 STRESS PERIOD   24
  ------------------------------------------------------------------------------



     CUMULATIVE VOLUMES      L**3       RATES FOR THIS TIME STEP      L**3/T
     ------------------                 ------------------------

           IN:                                      IN:
           ---                                      ---
        INFILTRATION =   342888080.8621          INFILTRATION =           0.8475

          OUT:                                     OUT:
          ----                                     ----
              UZF ET =   198152812.4173                UZF ET =           0.0271
        UZF RECHARGE =    12980772.1434          UZF RECHARGE =           0.0434

            IN - OUT =   131754496.3014              IN - OUT =           0.7770

          STORAGE:                                 STORAGE:
          --------                                 --------
      STORAGE CHANGE =   131904437.8373        STORAGE CHANGE =           0.7770

 PERCENT DISCREPANCY IS DIFFERENCE BETWEEN IN-OUT MINUS CHANGE IN STORAGE
 DIVIDED BY THE AVERAGE OF IN AND OUT TIMES 100

 PERCENT DISCREPANCY =          -0.01     PERCENT DISCREPANCY =          -0.00






1
  VOLUMETRIC BUDGET FOR ENTIRE MODEL AT END OF TIME STEP   30, STRESS PERIOD  24
  ------------------------------------------------------------------------------

     CUMULATIVE VOLUMES      L**3       RATES FOR THIS TIME STEP      L**3/T
     ------------------                 ------------------------

           IN:                                      IN:
           ---                                      ---
               AWU WELLS =   168013232.0000                 AWU WELLS =           0.0000
      DIVERSION SEGMENTS =   123574016.0000        DIVERSION SEGMENTS =           0.0000
           GW IRRIGATION =           0.0000             GW IRRIGATION =           0.0000
           SW IRRIGATION =           0.0000             SW IRRIGATION =           0.0000
        SYSTEM LOSSES GW =           0.0000          SYSTEM LOSSES GW =           0.0000
        SYSTEM LOSSES SW =           0.0000          SYSTEM LOSSES SW =           0.0000

                TOTAL IN =   291587264.0000                  TOTAL IN =           0.0000

          OUT:                                     OUT:
          ----                                     ----
               AWU WELLS =           0.0000                 AWU WELLS =           0.0000
      DIVERSION SEGMENTS =           0.0000        DIVERSION SEGMENTS =           0.0000
           GW IRRIGATION =   168013232.0000             GW IRRIGATION =           0.0000
           SW IRRIGATION =   123576472.0000             SW IRRIGATION =           0.0000
        SYSTEM LOSSES GW =           0.0000          SYSTEM LOSSES GW =           0.0000
        SYSTEM LOSSES SW =           0.0000          SYSTEM LOSSES SW =           0.0000

               TOTAL OUT =   291589696.0000                 TOTAL OUT =           0.0000

                IN - OUT =       -2432.0000                  IN - OUT =           0.0000

     PERCENT DISCREPANCY =          -0.00         PERCENT DISCREPANCY =           0.00



1
  VOLUMETRIC BUDGET FOR ENTIRE MODEL AT END OF TIME STEP   30, STRESS PERIOD  24
  ------------------------------------------------------------------------------

     CUMULATIVE VOLUMES      L**3       RATES FOR THIS TIME STEP      L**3/T
     ------------------                 ------------------------

           IN:                                      IN:
           ---                                      ---
             STORAGE     =   327325120.0000               STORAGE     =           1.7918
       CONSTANT HEAD     =           0.0000         CONSTANT HEAD     =           0.0000
     HEAD DEP BOUNDS     =    17289834.0000       HEAD DEP BOUNDS     =           0.2856
      STREAM LEAKAGE     =   759659840.0000        STREAM LEAKAGE     =          11.5625
        UZF RECHARGE     =    12980764.0000          UZF RECHARGE     =       4.3434E-02
               GW ET     =           0.0000                 GW ET     =           0.0000
     SURFACE LEAKAGE     =           0.0000       SURFACE LEAKAGE     =           0.0000
           AWU WELLS     =           0.0000             AWU WELLS     =           0.0000

                TOTAL IN =  1117255552.0000                  TOTAL IN =          13.6834

          OUT:                                     OUT:
          ----                                     ----
             STORAGE     =   249980784.0000               STORAGE     =           2.7263
       CONSTANT HEAD     =           0.0000         CONSTANT HEAD     =           0.0000
     HEAD DEP BOUNDS     =    17505140.0000       HEAD DEP BOUNDS     =           0.2894
      STREAM LEAKAGE     =   571157376.0000        STREAM LEAKAGE     =          10.6581
        UZF RECHARGE     =           0.0000          UZF RECHARGE     =           0.0000
               GW ET     =   110610392.0000                 GW ET     =       9.8346E-03
     SURFACE LEAKAGE     =           0.0000       SURFACE LEAKAGE     =           0.0000
           AWU WELLS     =   168013232.0000             AWU WELLS     =           0.0000

               TOTAL OUT =  1117266944.0000                 TOTAL OUT =          13.6836

                IN - OUT =      -11392.0000                  IN - OUT =      -2.4986E-04

     PERCENT DISCREPANCY =          -0.00         PERCENT DISCREPANCY =          -0.00






         TIME SUMMARY AT END OF TIME STEP   30 IN STRESS PERIOD   24
                    SECONDS     MINUTES      HOURS       DAYS        YEARS
                    -----------------------------------------------------------
   TIME STEP LENGTH  87600.      1460.0      24.333      1.0139     2.77588E-03
 STRESS PERIOD TIME 2.62800E+06  43800.      730.00      30.417     8.32763E-02
         TOTAL TIME 6.05304E+07 1.00884E+06  16814.      700.58      1.9181    
1
1
                            STRESS PERIOD NO.   25, LENGTH =   2628000.    
                            -----------------------------------------------

                              NUMBER OF TIME STEPS =    30

                               MULTIPLIER FOR DELT =     1.000

                            INITIAL TIME STEP SIZE =   87600.00    

 REUSING NON-PARAMETER GHB CELLS FROM LAST STRESS PERIOD

      2 GHB CELLS

 REUSING STREAM SEGMENT DATA FROM LAST STRESS PERIOD



            AREAL INFILTRATION RATE
 READING ON UNIT   19 WITH FORMAT: (10F4.0)            

            1           2           3           4           5           6           7           8           9          10
 ........................................................................................................................
   1   1.0000E-10  2.0000E-10   0.000       0.000       0.000       0.000       0.000       0.000       0.000       0.000    
   2   2.0000E-10  1.0000E-10  2.0000E-10   0.000       0.000      8.0000E-10  8.0000E-10  5.0000E-10   0.000       0.000    
   3    0.000      5.0000E-10  1.0000E-10  1.0000E-10  8.0000E-10  8.0000E-10  5.0000E-10  5.0000E-10   0.000       0.000    
   4   8.0000E-10  5.0000E-10  1.0000E-10  1.0000E-10  1.0000E-10  1.0000E-10  1.0000E-10  1.0000E-10  2.0000E-10   0.000    
   5   8.0000E-10  5.0000E-10  1.0000E-10  1.0000E-10  1.0000E-10  1.0000E-10  1.0000E-10  1.0000E-10  1.0000E-10  1.0000E-10
   6   8.0000E-10  5.0000E-10  5.0000E-10  2.0000E-10  2.0000E-10  1.0000E-10  1.0000E-10  1.0000E-10  1.0000E-10  5.0000E-10
   7   8.0000E-10  5.0000E-10  5.0000E-10  2.0000E-10  2.0000E-10  1.0000E-10  1.0000E-10  2.0000E-10  2.0000E-10   0.000    
   8    0.000      5.0000E-10  5.0000E-10  2.0000E-10  2.0000E-10  1.0000E-10  1.0000E-10  2.0000E-10  5.0000E-10   0.000    
   9    0.000      5.0000E-10  5.0000E-10  2.0000E-10  2.0000E-10  1.0000E-10  1.0000E-10  2.0000E-10  5.0000E-10   0.000    
  10    0.000      5.0000E-10  5.0000E-10  2.0000E-10  2.0000E-10  1.0000E-10  1.0000E-10  2.0000E-10  5.0000E-10  8.0000E-10
  11    0.000      1.0000E-10  1.0000E-10  1.0000E-10  1.0000E-10  1.0000E-10  1.0000E-10  2.0000E-10  5.0000E-10   0.000    
  12   1.0000E-10  1.0000E-10  1.0000E-10  1.0000E-10  1.0000E-10  1.0000E-10  1.0000E-10  1.0000E-10  2.0000E-10   0.000    
  13   1.0000E-10  1.0000E-10  2.0000E-10  2.0000E-10  2.0000E-10  2.0000E-10  2.0000E-10  1.0000E-10  1.0000E-10   0.000    
  14    0.000      2.0000E-10  5.0000E-10  5.0000E-10  5.0000E-10  5.0000E-10  5.0000E-10  2.0000E-10  1.0000E-10   0.000    
  15    0.000       0.000      8.0000E-10  8.0000E-10  8.0000E-10  8.0000E-10   0.000       0.000       0.000       0.000    

                  ET RATE =  1.000000E-10

 USING ET EXTINCTION DEPTH FROM PREVIOUS STRESS PERIOD. CURRENT PERIOD IS:      25

 USING EXTINCTION WATER CONTENT FROM PREVIOUS STRESS PERIOD. CURRENT PERIOD IS:      25

 PROCESSING AWU STRESS PERIOD DATA

 READING AWU STRESS PERIOD DATA

 READING IRRIGATION STREAM

 READING IRRIGATION WELL

 READING SUPPLEMENTAL WEL

 END PROCESSING AWU STRESS PERIOD DATA OPTIONS
 
 SOLVING FOR HEAD 
                                                   Max.-Head-Change                         Max.-Flux-Residual
  Residual-Control   Outer-Iter.   Inner-Iter.     Column Row Layer    Maximum-Head-Change  Column Row Layer    Maximum-Flux-Residual          L2-NORM 
          0                 1           2             4    7     1       0.6204504963E-02       4    7    1         0.3266861143E+00      0.7370369019E+00
          0                 2           2             4    7     1      -0.6035301463E-03       4    7    1        -0.3266867958E-01      0.7310110681E-01
          0                 3           1             4    7     1       0.4109815648E-04       4    7    1         0.2286807920E-02      0.5138774363E-02

    ------------------------------------------------
       NWT REQUIRED            3 OUTER ITERATIONS 
       AND A TOTAL OF          5 INNER ITERATIONS.
    ------------------------------------------------

 NO OUTPUT CONTROL FOR STRESS PERIOD   25   TIME STEP    1
 
 SOLVING FOR HEAD 
                                                   Max.-Head-Change                         Max.-Flux-Residual
  Residual-Control   Outer-Iter.   Inner-Iter.     Column Row Layer    Maximum-Head-Change  Column Row Layer    Maximum-Flux-Residual          L2-NORM 
          0                 1           2             4    7     1       0.6127839842E-02       4    7    1         0.3226237123E+00      0.7303958004E+00
          0                 2           2             4    7     1      -0.5960726909E-03       4    7    1        -0.3226243737E-01      0.7245327630E-01
          0                 3           1             4    7     1       0.4059033138E-04       4    7    1         0.2258370952E-02      0.5093839519E-02

    ------------------------------------------------
       NWT REQUIRED            3 OUTER ITERATIONS 
       AND A TOTAL OF          5 INNER ITERATIONS.
    ------------------------------------------------

 NO OUTPUT CONTROL FOR STRESS PERIOD   25   TIME STEP    2
 
 SOLVING FOR HEAD 
                                                   Max.-Head-Change                         Max.-Flux-Residual
  Residual-Control   Outer-Iter.   Inner-Iter.     Column Row Layer    Maximum-Head-Change  Column Row Layer    Maximum-Flux-Residual          L2-NORM 
          0                 1           2             4    7     1       0.6052481896E-02       4    7    1         0.3186308829E+00      0.7229186994E+00
          0                 2           2             4    7     1      -0.5887423887E-03       4    7    1        -0.3186315247E-01      0.7170153145E-01
          0                 3           1             4    7     1       0.4009116544E-04       4    7    1         0.2230421014E-02      0.5041468042E-02

    ------------------------------------------------
       NWT REQUIRED            3 OUTER ITERATIONS 
       AND A TOTAL OF          5 INNER ITERATIONS.
    ------------------------------------------------

 NO OUTPUT CONTROL FOR STRESS PERIOD   25   TIME STEP    3
 
 SOLVING FOR HEAD 
                                                   Max.-Head-Change                         Max.-Flux-Residual
  Residual-Control   Outer-Iter.   Inner-Iter.     Column Row Layer    Maximum-Head-Change  Column Row Layer    Maximum-Flux-Residual          L2-NORM 
          0                 1           2             4    7     1       0.5978669602E-02       4    7    1         0.3147206867E+00      0.7155940105E+00
          0                 2           2             4    7     1      -0.5815624384E-03       4    7    1        -0.3147213099E-01      0.7096495100E-01
          0                 3           1             4    7     1       0.3960223798E-04       4    7    1         0.2203049543E-02      0.4990066048E-02

    ------------------------------------------------
       NWT REQUIRED            3 OUTER ITERATIONS 
       AND A TOTAL OF          5 INNER ITERATIONS.
    ------------------------------------------------

 NO OUTPUT CONTROL FOR STRESS PERIOD   25   TIME STEP    4
 
 SOLVING FOR HEAD 
                                                   Max.-Head-Change                         Max.-Flux-Residual
  Residual-Control   Outer-Iter.   Inner-Iter.     Column Row Layer    Maximum-Head-Change  Column Row Layer    Maximum-Flux-Residual          L2-NORM 
          0                 1           2             4    7     1       0.5906359583E-02       4    7    1         0.3108906916E+00      0.7084120608E+00
          0                 2           2             4    7     1      -0.5745286185E-03       4    7    1        -0.3108912967E-01      0.7024264019E-01
          0                 3           1             4    7     1       0.3912326075E-04       4    7    1         0.2176239441E-02      0.4939709827E-02

    ------------------------------------------------
       NWT REQUIRED            3 OUTER ITERATIONS 
       AND A TOTAL OF          5 INNER ITERATIONS.
    ------------------------------------------------

 NO OUTPUT CONTROL FOR STRESS PERIOD   25   TIME STEP    5
 
 SOLVING FOR HEAD 
                                                   Max.-Head-Change                         Max.-Flux-Residual
  Residual-Control   Outer-Iter.   Inner-Iter.     Column Row Layer    Maximum-Head-Change  Column Row Layer    Maximum-Flux-Residual          L2-NORM 
          0                 1           2             4    7     1       0.5835240561E-02       4    7    1         0.3071238399E+00      0.7013696196E+00
          0                 2           2             4    7     1      -0.5676106514E-03       4    7    1        -0.3071244277E-01      0.6953430307E-01
          0                 3           1             4    7     1       0.3865217301E-04       4    7    1         0.2149871357E-02      0.4890368727E-02

    ------------------------------------------------
       NWT REQUIRED            3 OUTER ITERATIONS 
       AND A TOTAL OF          5 INNER ITERATIONS.
    ------------------------------------------------

 NO OUTPUT CONTROL FOR STRESS PERIOD   25   TIME STEP    6
 
 SOLVING FOR HEAD 
                                                   Max.-Head-Change                         Max.-Flux-Residual
  Residual-Control   Outer-Iter.   Inner-Iter.     Column Row Layer    Maximum-Head-Change  Column Row Layer    Maximum-Flux-Residual          L2-NORM 
          0                 1           2             4    7     1       0.5765285750E-02       4    7    1         0.3034187867E+00      0.6944586165E+00
          0                 2           2             4    7     1      -0.5608059312E-03       4    7    1        -0.3034193576E-01      0.6883904075E-01
          0                 3           1             4    7     1       0.3818879751E-04       4    7    1         0.2123935884E-02      0.4841894102E-02

    ------------------------------------------------
       NWT REQUIRED            3 OUTER ITERATIONS 
       AND A TOTAL OF          5 INNER ITERATIONS.
    ------------------------------------------------

 NO OUTPUT CONTROL FOR STRESS PERIOD   25   TIME STEP    7
 
 SOLVING FOR HEAD 
                                                   Max.-Head-Change                         Max.-Flux-Residual
  Residual-Control   Outer-Iter.   Inner-Iter.     Column Row Layer    Maximum-Head-Change  Column Row Layer    Maximum-Flux-Residual          L2-NORM 
          0                 1           2             4    7     1       0.5696740219E-02       4    7    1         0.2997889493E+00      0.6876779327E+00
          0                 2           2             4    7     1      -0.5541382960E-03       4    7    1        -0.2997895039E-01      0.6815679989E-01
          0                 3           1             4    7     1       0.3773475617E-04       4    7    1         0.2098526911E-02      0.4794336172E-02

    ------------------------------------------------
       NWT REQUIRED            3 OUTER ITERATIONS 
       AND A TOTAL OF          5 INNER ITERATIONS.
    ------------------------------------------------

 NO OUTPUT CONTROL FOR STRESS PERIOD   25   TIME STEP    8
 
 SOLVING FOR HEAD 
                                                   Max.-Head-Change                         Max.-Flux-Residual
  Residual-Control   Outer-Iter.   Inner-Iter.     Column Row Layer    Maximum-Head-Change  Column Row Layer    Maximum-Flux-Residual          L2-NORM 
          0                 1           2             4    7     1       0.5629560517E-02       4    7    1         0.2962322370E+00      0.6810186486E+00
          0                 2           2             4    7     1      -0.5476035195E-03       4    7    1        -0.2962327757E-01      0.6748673333E-01
          0                 3           1             4    7     1       0.3728976238E-04       4    7    1         0.2073629799E-02      0.4746775230E-02

    ------------------------------------------------
       NWT REQUIRED            3 OUTER ITERATIONS 
       AND A TOTAL OF          5 INNER ITERATIONS.
    ------------------------------------------------

 NO OUTPUT CONTROL FOR STRESS PERIOD   25   TIME STEP    9
 
 SOLVING FOR HEAD 
                                                   Max.-Head-Change                         Max.-Flux-Residual
  Residual-Control   Outer-Iter.   Inner-Iter.     Column Row Layer    Maximum-Head-Change  Column Row Layer    Maximum-Flux-Residual          L2-NORM 
          0                 1           2             4    7     1       0.5563436894E-02       4    7    1         0.2927315875E+00      0.6744738751E+00
          0                 2           2             4    7     1      -0.5411714724E-03       4    7    1        -0.2927321113E-01      0.6682809665E-01
          0                 3           1             4    7     1       0.3685176417E-04       4    7    1         0.2049125166E-02      0.4700022604E-02

    ------------------------------------------------
       NWT REQUIRED            3 OUTER ITERATIONS 
       AND A TOTAL OF          5 INNER ITERATIONS.
    ------------------------------------------------

 NO OUTPUT CONTROL FOR STRESS PERIOD   25   TIME STEP   10
 
 SOLVING FOR HEAD 
                                                   Max.-Head-Change                         Max.-Flux-Residual
  Residual-Control   Outer-Iter.   Inner-Iter.     Column Row Layer    Maximum-Head-Change  Column Row Layer    Maximum-Flux-Residual          L2-NORM 
          0                 1           2             4    7     1       0.5498352231E-02       4    7    1         0.2892857357E+00      0.6680566272E+00
          0                 2           2             4    7     1      -0.5348404876E-03       4    7    1        -0.2892862446E-01      0.6618146933E-01
          0                 3           1             4    7     1       0.3642064771E-04       4    7    1         0.2025004102E-02      0.4655398853E-02

    ------------------------------------------------
       NWT REQUIRED            3 OUTER ITERATIONS 
       AND A TOTAL OF          5 INNER ITERATIONS.
    ------------------------------------------------

 NO OUTPUT CONTROL FOR STRESS PERIOD   25   TIME STEP   11
 
 SOLVING FOR HEAD 
                                                   Max.-Head-Change                         Max.-Flux-Residual
  Residual-Control   Outer-Iter.   Inner-Iter.     Column Row Layer    Maximum-Head-Change  Column Row Layer    Maximum-Flux-Residual          L2-NORM 
          0                 1           2             4    7     1       0.5434546744E-02       4    7    1         0.2859086015E+00      0.6617408809E+00
          0                 2           2             4    7     1      -0.5286339329E-03       4    7    1        -0.2859090962E-01      0.6554356135E-01
          0                 3           1             4    7     1       0.3599800463E-04       4    7    1         0.2001364076E-02      0.4610278577E-02

    ------------------------------------------------
       NWT REQUIRED            3 OUTER ITERATIONS 
       AND A TOTAL OF          5 INNER ITERATIONS.
    ------------------------------------------------

 NO OUTPUT CONTROL FOR STRESS PERIOD   25   TIME STEP   12
 
 SOLVING FOR HEAD 
                                                   Max.-Head-Change                         Max.-Flux-Residual
  Residual-Control   Outer-Iter.   Inner-Iter.     Column Row Layer    Maximum-Head-Change  Column Row Layer    Maximum-Flux-Residual          L2-NORM 
          0                 1           2             4    7     1       0.5371990926E-02       4    7    1         0.2825978413E+00      0.6555421158E+00
          0                 2           2             4    7     1      -0.5225489375E-03       4    7    1        -0.2825983224E-01      0.6491723844E-01
          0                 3           1             4    7     1       0.3558363943E-04       4    7    1         0.1978188656E-02      0.4565927895E-02

    ------------------------------------------------
       NWT REQUIRED            3 OUTER ITERATIONS 
       AND A TOTAL OF          5 INNER ITERATIONS.
    ------------------------------------------------

 NO OUTPUT CONTROL FOR STRESS PERIOD   25   TIME STEP   13
 
 SOLVING FOR HEAD 
                                                   Max.-Head-Change                         Max.-Flux-Residual
  Residual-Control   Outer-Iter.   Inner-Iter.     Column Row Layer    Maximum-Head-Change  Column Row Layer    Maximum-Flux-Residual          L2-NORM 
          0                 1           2             4    7     1       0.5310382231E-02       4    7    1         0.2793371160E+00      0.6494544472E+00
          0                 2           2             4    7     1      -0.5165560723E-03       4    7    1        -0.2793375840E-01      0.6430200937E-01
          0                 3           1             4    7     1       0.3517554797E-04       4    7    1         0.1955363511E-02      0.4522863264E-02

    ------------------------------------------------
       NWT REQUIRED            3 OUTER ITERATIONS 
       AND A TOTAL OF          5 INNER ITERATIONS.
    ------------------------------------------------

 NO OUTPUT CONTROL FOR STRESS PERIOD   25   TIME STEP   14
 
 SOLVING FOR HEAD 
                                                   Max.-Head-Change                         Max.-Flux-Residual
  Residual-Control   Outer-Iter.   Inner-Iter.     Column Row Layer    Maximum-Head-Change  Column Row Layer    Maximum-Flux-Residual          L2-NORM 
          0                 1           2             4    7     1       0.5249698551E-02       4    7    1         0.2761255352E+00      0.6434675908E+00
          0                 2           2             4    7     1      -0.5106531856E-03       4    7    1        -0.2761259901E-01      0.6369697188E-01
          0                 3           1             4    7     1       0.3477358303E-04       4    7    1         0.1932882340E-02      0.4480878966E-02

    ------------------------------------------------
       NWT REQUIRED            3 OUTER ITERATIONS 
       AND A TOTAL OF          5 INNER ITERATIONS.
    ------------------------------------------------

 NO OUTPUT CONTROL FOR STRESS PERIOD   25   TIME STEP   15
 
 SOLVING FOR HEAD 
                                                   Max.-Head-Change                         Max.-Flux-Residual
  Residual-Control   Outer-Iter.   Inner-Iter.     Column Row Layer    Maximum-Head-Change  Column Row Layer    Maximum-Flux-Residual          L2-NORM 
          0                 1           2             4    7     1       0.5190185341E-02       4    7    1         0.2729767600E+00      0.6375745230E+00
          0                 2           2             4    7     1      -0.5048641550E-03       4    7    1        -0.2729772026E-01      0.6310135578E-01
          0                 3           1             4    7     1       0.3437937198E-04       4    7    1         0.1910840838E-02      0.4439160787E-02

    ------------------------------------------------
       NWT REQUIRED            3 OUTER ITERATIONS 
       AND A TOTAL OF          5 INNER ITERATIONS.
    ------------------------------------------------

 NO OUTPUT CONTROL FOR STRESS PERIOD   25   TIME STEP   16
 
 SOLVING FOR HEAD 
                                                   Max.-Head-Change                         Max.-Flux-Residual
  Residual-Control   Outer-Iter.   Inner-Iter.     Column Row Layer    Maximum-Head-Change  Column Row Layer    Maximum-Flux-Residual          L2-NORM 
          0                 1           2             4    7     1       0.5131821904E-02       4    7    1         0.2698887183E+00      0.6317918133E+00
          0                 2           2             4    7     1      -0.4991869669E-03       4    7    1        -0.2698891492E-01      0.6251775844E-01
          0                 3           1             4    7     1       0.3399277661E-04       4    7    1         0.1889224459E-02      0.4398595863E-02

    ------------------------------------------------
       NWT REQUIRED            3 OUTER ITERATIONS 
       AND A TOTAL OF          5 INNER ITERATIONS.
    ------------------------------------------------

 NO OUTPUT CONTROL FOR STRESS PERIOD   25   TIME STEP   17
 
 SOLVING FOR HEAD 
                                                   Max.-Head-Change                         Max.-Flux-Residual
  Residual-Control   Outer-Iter.   Inner-Iter.     Column Row Layer    Maximum-Head-Change  Column Row Layer    Maximum-Flux-Residual          L2-NORM 
          0                 1           2             4    7     1       0.5074301496E-02       4    7    1         0.2668455276E+00      0.6261011601E+00
          0                 2           2             4    7     1      -0.4935917821E-03       4    7    1        -0.2668459465E-01      0.6194468443E-01
          0                 3           1             4    7     1       0.3361176530E-04       4    7    1         0.1867922037E-02      0.4359116600E-02

    ------------------------------------------------
       NWT REQUIRED            3 OUTER ITERATIONS 
       AND A TOTAL OF          5 INNER ITERATIONS.
    ------------------------------------------------

 NO OUTPUT CONTROL FOR STRESS PERIOD   25   TIME STEP   18
 
 SOLVING FOR HEAD 
                                                   Max.-Head-Change                         Max.-Flux-Residual
  Residual-Control   Outer-Iter.   Inner-Iter.     Column Row Layer    Maximum-Head-Change  Column Row Layer    Maximum-Flux-Residual          L2-NORM 
          0                 1           2             4    7     1       0.5017877127E-02       4    7    1         0.2638608890E+00      0.6204995250E+00
          0                 2           2             4    7     1      -0.4881032131E-03       4    7    1        -0.2638612969E-01      0.6138191002E-01
          0                 3           1             4    7     1       0.3323801418E-04       4    7    1         0.1847029490E-02      0.4320079998E-02

    ------------------------------------------------
       NWT REQUIRED            3 OUTER ITERATIONS 
       AND A TOTAL OF          5 INNER ITERATIONS.
    ------------------------------------------------

 NO OUTPUT CONTROL FOR STRESS PERIOD   25   TIME STEP   19
 
 SOLVING FOR HEAD 
                                                   Max.-Head-Change                         Max.-Flux-Residual
  Residual-Control   Outer-Iter.   Inner-Iter.     Column Row Layer    Maximum-Head-Change  Column Row Layer    Maximum-Flux-Residual          L2-NORM 
          0                 1           2             4    7     1       0.4962250156E-02       4    7    1         0.2609183126E+00      0.6149983605E+00
          0                 2           2             4    7     1      -0.4826922102E-03       4    7    1        -0.2609187097E-01      0.6082914046E-01
          0                 3           1             4    7     1       0.3286954514E-04       4    7    1         0.1826431388E-02      0.4281431384E-02

    ------------------------------------------------
       NWT REQUIRED            3 OUTER ITERATIONS 
       AND A TOTAL OF          5 INNER ITERATIONS.
    ------------------------------------------------

 NO OUTPUT CONTROL FOR STRESS PERIOD   25   TIME STEP   20
 
 SOLVING FOR HEAD 
                                                   Max.-Head-Change                         Max.-Flux-Residual
  Residual-Control   Outer-Iter.   Inner-Iter.     Column Row Layer    Maximum-Head-Change  Column Row Layer    Maximum-Flux-Residual          L2-NORM 
          0                 1           2             4    7     1       0.4907678840E-02       4    7    1         0.2580319211E+00      0.6095800382E+00
          0                 2           2             4    7     1      -0.4773838930E-03       4    7    1        -0.2580323074E-01      0.6028125054E-01
          0                 3           1             4    7     1       0.3250806837E-04       4    7    1         0.1806226560E-02      0.4243102341E-02

    ------------------------------------------------
       NWT REQUIRED            3 OUTER ITERATIONS 
       AND A TOTAL OF          5 INNER ITERATIONS.
    ------------------------------------------------

 NO OUTPUT CONTROL FOR STRESS PERIOD   25   TIME STEP   21
 
 SOLVING FOR HEAD 
                                                   Max.-Head-Change                         Max.-Flux-Residual
  Residual-Control   Outer-Iter.   Inner-Iter.     Column Row Layer    Maximum-Head-Change  Column Row Layer    Maximum-Flux-Residual          L2-NORM 
          0                 1           2             4    7     1       0.4854126253E-02       4    7    1         0.2552003057E+00      0.6042415655E+00
          0                 2           2             4    7     1      -0.4721746719E-03       4    7    1        -0.2552006819E-01      0.5974135623E-01
          0                 3           1             4    7     1       0.3215333987E-04       4    7    1         0.1786405180E-02      0.4205355585E-02

    ------------------------------------------------
       NWT REQUIRED            3 OUTER ITERATIONS 
       AND A TOTAL OF          5 INNER ITERATIONS.
    ------------------------------------------------

 NO OUTPUT CONTROL FOR STRESS PERIOD   25   TIME STEP   22
 
 SOLVING FOR HEAD 
                                                   Max.-Head-Change                         Max.-Flux-Residual
  Residual-Control   Outer-Iter.   Inner-Iter.     Column Row Layer    Maximum-Head-Change  Column Row Layer    Maximum-Flux-Residual          L2-NORM 
          0                 1           2             4    7     1       0.4801306826E-02       4    7    1         0.2524067404E+00      0.5989979913E+00
          0                 2           2             4    7     1      -0.4670367678E-03       4    7    1        -0.2524071071E-01      0.5921088356E-01
          0                 3           1             4    7     1       0.3180346767E-04       4    7    1         0.1766850151E-02      0.4168301276E-02

    ------------------------------------------------
       NWT REQUIRED            3 OUTER ITERATIONS 
       AND A TOTAL OF          5 INNER ITERATIONS.
    ------------------------------------------------

 NO OUTPUT CONTROL FOR STRESS PERIOD   25   TIME STEP   23
 
 SOLVING FOR HEAD 
                                                   Max.-Head-Change                         Max.-Flux-Residual
  Residual-Control   Outer-Iter.   Inner-Iter.     Column Row Layer    Maximum-Head-Change  Column Row Layer    Maximum-Flux-Residual          L2-NORM 
          0                 1           2             4    7     1       0.4749469202E-02       4    7    1         0.2496660274E+00      0.5938335053E+00
          0                 2           2             4    7     1      -0.4619943667E-03       4    7    1        -0.2496663845E-01      0.5868819966E-01
          0                 3           1             4    7     1       0.3146009924E-04       4    7    1         0.1747665122E-02      0.4131769920E-02

    ------------------------------------------------
       NWT REQUIRED            3 OUTER ITERATIONS 
       AND A TOTAL OF          5 INNER ITERATIONS.
    ------------------------------------------------

 NO OUTPUT CONTROL FOR STRESS PERIOD   25   TIME STEP   24
 
 SOLVING FOR HEAD 
                                                   Max.-Head-Change                         Max.-Flux-Residual
  Residual-Control   Outer-Iter.   Inner-Iter.     Column Row Layer    Maximum-Head-Change  Column Row Layer    Maximum-Flux-Residual          L2-NORM 
          0                 1           2             4    7     1       0.4698315659E-02       4    7    1         0.2469614483E+00      0.5887453803E+00
          0                 2           2             4    7     1      -0.4570185080E-03       4    7    1        -0.2469617961E-01      0.5817313398E-01
          0                 3           1             4    7     1       0.3112126193E-04       4    7    1         0.1728732998E-02      0.4095756020E-02

    ------------------------------------------------
       NWT REQUIRED            3 OUTER ITERATIONS 
       AND A TOTAL OF          5 INNER ITERATIONS.
    ------------------------------------------------

 NO OUTPUT CONTROL FOR STRESS PERIOD   25   TIME STEP   25
 
 SOLVING FOR HEAD 
                                                   Max.-Head-Change                         Max.-Flux-Residual
  Residual-Control   Outer-Iter.   Inner-Iter.     Column Row Layer    Maximum-Head-Change  Column Row Layer    Maximum-Flux-Residual          L2-NORM 
          0                 1           2             4    7     1       0.4648110233E-02       4    7    1         0.2443071750E+00      0.5837451138E+00
          0                 2           2             4    7     1      -0.4521348757E-03       4    7    1        -0.2443075136E-01      0.5766713160E-01
          0                 3           1             4    7     1       0.3078870474E-04       4    7    1         0.1710153008E-02      0.4060368203E-02

    ------------------------------------------------
       NWT REQUIRED            3 OUTER ITERATIONS 
       AND A TOTAL OF          5 INNER ITERATIONS.
    ------------------------------------------------

 NO OUTPUT CONTROL FOR STRESS PERIOD   25   TIME STEP   26
 
 SOLVING FOR HEAD 
                                                   Max.-Head-Change                         Max.-Flux-Residual
  Residual-Control   Outer-Iter.   Inner-Iter.     Column Row Layer    Maximum-Head-Change  Column Row Layer    Maximum-Flux-Residual          L2-NORM 
          0                 1           2             4    7     1       0.4598826409E-02       4    7    1         0.2417020979E+00      0.5788275623E+00
          0                 2           2             4    7     1      -0.4473408912E-03       4    7    1        -0.2417024280E-01      0.5716992137E-01
          0                 3           1             4    7     1       0.3046225231E-04       4    7    1         0.1691917431E-02      0.4025694121E-02

    ------------------------------------------------
       NWT REQUIRED            3 OUTER ITERATIONS 
       AND A TOTAL OF          5 INNER ITERATIONS.
    ------------------------------------------------

 NO OUTPUT CONTROL FOR STRESS PERIOD   25   TIME STEP   27
 
 SOLVING FOR HEAD 
                                                   Max.-Head-Change                         Max.-Flux-Residual
  Residual-Control   Outer-Iter.   Inner-Iter.     Column Row Layer    Maximum-Head-Change  Column Row Layer    Maximum-Flux-Residual          L2-NORM 
          0                 1           2             4    7     1       0.4550172362E-02       4    7    1         0.2391300305E+00      0.5739862547E+00
          0                 2           2             4    7     1      -0.4426081664E-03       4    7    1        -0.2391303523E-01      0.5668113005E-01
          0                 3           1             4    7     1       0.3013997123E-04       4    7    1         0.1673912871E-02      0.3991560368E-02

    ------------------------------------------------
       NWT REQUIRED            3 OUTER ITERATIONS 
       AND A TOTAL OF          5 INNER ITERATIONS.
    ------------------------------------------------

 NO OUTPUT CONTROL FOR STRESS PERIOD   25   TIME STEP   28
 
 SOLVING FOR HEAD 
                                                   Max.-Head-Change                         Max.-Flux-Residual
  Residual-Control   Outer-Iter.   Inner-Iter.     Column Row Layer    Maximum-Head-Change  Column Row Layer    Maximum-Flux-Residual          L2-NORM 
          0                 1           2             4    7     1       0.4502404989E-02       4    7    1         0.2366054517E+00      0.5692132441E+00
          0                 2           2             4    7     1      -0.4379616913E-03       4    7    1        -0.2366057651E-01      0.5620043386E-01
          0                 3           1             4    7     1       0.2982356345E-04       4    7    1         0.1656240759E-02      0.3958016762E-02

    ------------------------------------------------
       NWT REQUIRED            3 OUTER ITERATIONS 
       AND A TOTAL OF          5 INNER ITERATIONS.
    ------------------------------------------------

 NO OUTPUT CONTROL FOR STRESS PERIOD   25   TIME STEP   29
 
 SOLVING FOR HEAD 
                                                   Max.-Head-Change                         Max.-Flux-Residual
  Residual-Control   Outer-Iter.   Inner-Iter.     Column Row Layer    Maximum-Head-Change  Column Row Layer    Maximum-Flux-Residual          L2-NORM 
          0                 1           2             4    7     1       0.4455505838E-02       4    7    1         0.2341268809E+00      0.5645278915E+00
          0                 2           2             4    7     1      -0.4333996715E-03       4    7    1        -0.2341271865E-01      0.5573016645E-01
          0                 3           1             4    7     1       0.2951290706E-04       4    7    1         0.1638890715E-02      0.3925206612E-02

    ------------------------------------------------
       NWT REQUIRED            3 OUTER ITERATIONS 
       AND A TOTAL OF          5 INNER ITERATIONS.
    ------------------------------------------------

 NO OUTPUT CONTROL FOR STRESS PERIOD   25   TIME STEP   30



 STREAM LISTING     PERIOD     25   STEP       30

 LAYER ROW COL. STREAM  RCH.  FLOW INTO     FLOW TO   FLOW OUT OF   OVRLND.     DIRECT     STREAM       STREAM     STREAM     STREAM   STREAMBED  STREAMBED
                SEG.NO.  NO.  STRM. RCH.    AQUIFER    STRM. RCH.    RUNOFF     PRECIP       ET          HEAD       DEPTH      WIDTH   CONDCTNC.   GRADIENT

   1    1    1     1     1    2.0000E+01  2.2070E-01   1.9779E+01  0.000E+00  0.000E+00  0.000E+00  1.09415E+03  1.098E+00  1.197E+01  5.385E-02  1.366E+00
   1    2    2     1     2    1.9779E+01  3.4051E-01   1.9439E+01  0.000E+00  0.000E+00  0.000E+00  1.08915E+03  1.094E+00  1.188E+01  8.318E-02  1.365E+00
   1    3    3     1     3    1.9439E+01  2.8917E-01   1.9150E+01  0.000E+00  0.000E+00  0.000E+00  1.08351E+03  1.089E+00  1.179E+01  7.072E-02  1.363E+00
   1    3    4     1     4    1.9150E+01  2.6526E-01   1.8884E+01  0.000E+00  0.000E+00  0.000E+00  1.07849E+03  1.084E+00  1.170E+01  6.495E-02  1.361E+00
   1    4    5     2     1    1.6884E+01  3.0802E-01   1.6576E+01  0.000E+00  0.000E+00  0.000E+00  1.07288E+03  9.490E-01  1.200E+01  7.800E-02  1.316E+00
   1    5    6     2     2    1.6576E+01  2.3638E-01   1.6340E+01  0.000E+00  0.000E+00  0.000E+00  1.06745E+03  9.397E-01  1.200E+01  6.000E-02  1.313E+00
   1    6    6     2     3    1.6340E+01  2.3589E-01   1.6104E+01  0.000E+00  0.000E+00  0.000E+00  1.06272E+03  9.316E-01  1.200E+01  6.000E-02  1.311E+00
   1    7    6     2     4    1.6104E+01  2.3540E-01   1.5869E+01  0.000E+00  0.000E+00  0.000E+00  1.05800E+03  9.234E-01  1.200E+01  6.000E-02  1.308E+00
   1    8    6     2     5    1.5869E+01  2.3491E-01   1.5634E+01  0.000E+00  0.000E+00  0.000E+00  1.05327E+03  9.152E-01  1.200E+01  6.000E-02  1.305E+00
   1    3    5     3     1    2.0000E+00  2.8252E-01   1.7175E+00  0.000E+00  0.000E+00  0.000E+00  1.07555E+03  1.909E+00  9.636E+00  7.227E-02  1.955E+00
   1    3    6     3     2    1.7175E+00  2.4905E-01   1.4684E+00  0.000E+00  0.000E+00  0.000E+00  1.07264E+03  1.727E+00  8.909E+00  6.682E-02  1.864E+00
   1    3    7     3     3    1.4684E+00  1.9718E-01   1.2712E+00  0.000E+00  0.000E+00  0.000E+00  1.06987E+03  1.555E+00  8.218E+00  5.547E-02  1.777E+00
   1    4    8     3     4    1.2712E+00  2.2567E-01   1.0456E+00  0.000E+00  0.000E+00  0.000E+00  1.06682E+03  1.364E+00  7.455E+00  6.709E-02  1.682E+00
   1    5    8     3     5    1.0456E+00  1.5790E-01   8.8768E-01  0.000E+00  0.000E+00  0.000E+00  1.06362E+03  1.164E+00  6.655E+00  4.991E-02  1.582E+00
   1    6    8     3     6    8.8768E-01  5.5980E-02   8.3170E-01  0.000E+00  0.000E+00  0.000E+00  1.06158E+03  1.036E+00  6.145E+00  1.844E-02  1.518E+00
   1    5   10     4     1    1.0000E+01  9.0919E-02   9.9091E+00  0.000E+00  0.000E+00  0.000E+00  1.07836E+03  6.368E-01  1.000E+01  2.500E-02  1.212E+00
   1    5    9     4     2    9.9091E+00  1.8158E-01   9.7275E+00  0.000E+00  0.000E+00  0.000E+00  1.07154E+03  6.315E-01  1.000E+01  5.000E-02  1.211E+00
   1    6    8     4     3    9.7275E+00  1.2689E-01   9.6006E+00  0.000E+00  0.000E+00  0.000E+00  1.06381E+03  6.256E-01  1.000E+01  3.500E-02  1.209E+00
   1    6    8     5     1    1.0432E+01  2.2686E-01   1.0205E+01  0.000E+00  0.000E+00  0.000E+00  1.05868E+03  6.790E-01  1.542E+01  6.166E-02  1.226E+00
   1    7    7     5     2    1.0205E+01  2.7894E-01   9.9265E+00  0.000E+00  0.000E+00  0.000E+00  1.05417E+03  6.732E-01  1.519E+01  7.594E-02  1.224E+00
   1    8    7     5     3    9.9265E+00  1.9221E-01   9.7343E+00  0.000E+00  0.000E+00  0.000E+00  1.04992E+03  6.676E-01  1.497E+01  5.241E-02  1.223E+00
   1    8    6     5     4    9.7343E+00  1.3577E-01   9.5985E+00  0.000E+00  0.000E+00  0.000E+00  1.04691E+03  6.637E-01  1.482E+01  3.706E-02  1.221E+00
   1    9    6     6     1    2.5232E+01  2.5345E-01   2.4979E+01  0.000E+00  0.000E+00  0.000E+00  1.04395E+03  1.224E+00  1.200E+01  6.000E-02  1.408E+00
   1   10    7     6     2    2.4979E+01  2.5300E-01   2.4726E+01  0.000E+00  0.000E+00  0.000E+00  1.03940E+03  1.217E+00  1.200E+01  6.000E-02  1.406E+00
   1   11    7     6     3    2.4726E+01  2.5256E-01   2.4473E+01  0.000E+00  0.000E+00  0.000E+00  1.03485E+03  1.209E+00  1.200E+01  6.000E-02  1.403E+00
   1   12    7     6     4    2.4473E+01  2.5211E-01   2.4221E+01  0.000E+00  0.000E+00  0.000E+00  1.03029E+03  1.202E+00  1.200E+01  6.000E-02  1.401E+00
   1   13    7     6     5    2.4221E+01  7.3552E-04   2.4220E+01  0.000E+00  0.000E+00  0.000E+00  1.02711E+03  1.198E+00  1.200E+01  2.400E-02  1.022E-02
   1   14    9     7     1    1.5000E+02  1.3348E+00   1.4867E+02  0.000E+00  0.000E+00  0.000E+00  1.03987E+03  2.288E+00  5.529E+01  5.593E-01  7.955E-01
   1   13    8     7     2    1.4867E+02  1.8331E+00   1.4683E+02  0.000E+00  0.000E+00  0.000E+00  1.03478E+03  2.279E+00  5.526E+01  6.148E-01  9.939E-01
   1   13    7     7     3    1.4683E+02  1.4594E+00   1.4537E+02  0.000E+00  0.000E+00  0.000E+00  1.02969E+03  2.271E+00  5.522E+01  5.585E-01  8.711E-01
   1   13    6     8     1    1.6959E+02  9.1244E-01   1.6868E+02  0.000E+00  0.000E+00  0.000E+00  1.02482E+03  2.947E+00  4.273E+01  4.354E-01  6.986E-01
   1   13    5     8     2    1.6868E+02  1.6464E-01   1.6852E+02  0.000E+00  0.000E+00  0.000E+00  1.01857E+03  2.943E+00  4.267E+01  4.349E-01  1.262E-01
   1   13    4     8     3    1.6852E+02 -2.5014E+00   1.7102E+02  0.000E+00  0.000E+00  0.000E+00  1.01233E+03  2.951E+00  4.278E+01  4.360E+00 -1.912E-01
   1   13    3     8     4    1.7102E+02 -3.6752E+00   1.7469E+02  0.000E+00  0.000E+00  0.000E+00  1.00610E+03  2.971E+00  4.308E+01  4.390E+00 -2.791E-01
   1   13    2     8     5    1.7469E+02 -2.5769E+00   1.7727E+02  0.000E+00  0.000E+00  0.000E+00  9.99866E+02  2.991E+00  4.337E+01  4.419E+00 -1.944E-01
   1   13    1     8     6    1.7727E+02 -1.9728E+00   1.7924E+02  0.000E+00  0.000E+00  0.000E+00  9.94880E+02  3.005E+00  4.357E+01  2.664E+00 -2.468E-01
   1    8    6     9     1    0.0000E+00  0.0000E+00   0.0000E+00  0.000E+00  0.000E+00  0.000E+00  1.07875E+03  0.000E+00  4.000E+00  0.000E+00  1.000E+00
   1    8    5     9     2    0.0000E+00  0.0000E+00   0.0000E+00  0.000E+00  0.000E+00  0.000E+00  1.07825E+03  0.000E+00  4.000E+00  0.000E+00  1.000E+00





UNSATURATED ZONE PACKAGE VOLUMETRIC BUDGET FOR  TIME STEP    30 STRESS PERIOD   25
  ------------------------------------------------------------------------------



     CUMULATIVE VOLUMES      L**3       RATES FOR THIS TIME STEP      L**3/T
     ------------------                 ------------------------

           IN:                                      IN:
           ---                                      ---
        INFILTRATION =   345115310.8621          INFILTRATION =           0.8475

          OUT:                                     OUT:
          ----                                     ----
              UZF ET =   198231387.2392                UZF ET =           0.0325
        UZF RECHARGE =    13088121.8998          UZF RECHARGE =           0.0396

            IN - OUT =   133795801.7231              IN - OUT =           0.7754

          STORAGE:                                 STORAGE:
          --------                                 --------
      STORAGE CHANGE =   133945743.2529        STORAGE CHANGE =           0.7754

 PERCENT DISCREPANCY IS DIFFERENCE BETWEEN IN-OUT MINUS CHANGE IN STORAGE
 DIVIDED BY THE AVERAGE OF IN AND OUT TIMES 100

 PERCENT DISCREPANCY =          -0.01     PERCENT DISCREPANCY =           0.00






1
  VOLUMETRIC BUDGET FOR ENTIRE MODEL AT END OF TIME STEP   30, STRESS PERIOD  25
  ------------------------------------------------------------------------------

     CUMULATIVE VOLUMES      L**3       RATES FOR THIS TIME STEP      L**3/T
     ------------------                 ------------------------

           IN:                                      IN:
           ---                                      ---
               AWU WELLS =   168013232.0000                 AWU WELLS =           0.0000
      DIVERSION SEGMENTS =   123574016.0000        DIVERSION SEGMENTS =           0.0000
           GW IRRIGATION =           0.0000             GW IRRIGATION =           0.0000
           SW IRRIGATION =           0.0000             SW IRRIGATION =           0.0000
        SYSTEM LOSSES GW =           0.0000          SYSTEM LOSSES GW =           0.0000
        SYSTEM LOSSES SW =           0.0000          SYSTEM LOSSES SW =           0.0000

                TOTAL IN =   291587264.0000                  TOTAL IN =           0.0000

          OUT:                                     OUT:
          ----                                     ----
               AWU WELLS =           0.0000                 AWU WELLS =           0.0000
      DIVERSION SEGMENTS =           0.0000        DIVERSION SEGMENTS =           0.0000
           GW IRRIGATION =   168013232.0000             GW IRRIGATION =           0.0000
           SW IRRIGATION =   123576472.0000             SW IRRIGATION =           0.0000
        SYSTEM LOSSES GW =           0.0000          SYSTEM LOSSES GW =           0.0000
        SYSTEM LOSSES SW =           0.0000          SYSTEM LOSSES SW =           0.0000

               TOTAL OUT =   291589696.0000                 TOTAL OUT =           0.0000

                IN - OUT =       -2432.0000                  IN - OUT =           0.0000

     PERCENT DISCREPANCY =          -0.00         PERCENT DISCREPANCY =           0.00



1
  VOLUMETRIC BUDGET FOR ENTIRE MODEL AT END OF TIME STEP   30, STRESS PERIOD  25
  ------------------------------------------------------------------------------

     CUMULATIVE VOLUMES      L**3       RATES FOR THIS TIME STEP      L**3/T
     ------------------                 ------------------------

           IN:                                      IN:
           ---                                      ---
             STORAGE     =   331481792.0000               STORAGE     =           1.3769
       CONSTANT HEAD     =           0.0000         CONSTANT HEAD     =           0.0000
     HEAD DEP BOUNDS     =    18040576.0000       HEAD DEP BOUNDS     =           0.2857
      STREAM LEAKAGE     =   789869056.0000        STREAM LEAKAGE     =          11.4840
        UZF RECHARGE     =    13088112.0000          UZF RECHARGE     =       3.9560E-02
               GW ET     =           0.0000                 GW ET     =           0.0000
     SURFACE LEAKAGE     =           0.0000       SURFACE LEAKAGE     =           0.0000
           AWU WELLS     =           0.0000             AWU WELLS     =           0.0000

                TOTAL IN =  1152479616.0000                  TOTAL IN =          13.1862

          OUT:                                     OUT:
          ----                                     ----
             STORAGE     =   256238976.0000               STORAGE     =           2.1608
       CONSTANT HEAD     =           0.0000         CONSTANT HEAD     =           0.0000
     HEAD DEP BOUNDS     =    18266034.0000       HEAD DEP BOUNDS     =           0.2896
      STREAM LEAKAGE     =   599337216.0000        STREAM LEAKAGE     =          10.7263
        UZF RECHARGE     =           0.0000          UZF RECHARGE     =           0.0000
               GW ET     =   110636056.0000                 GW ET     =       9.7011E-03
     SURFACE LEAKAGE     =           0.0000       SURFACE LEAKAGE     =           0.0000
           AWU WELLS     =   168013232.0000             AWU WELLS     =           0.0000

               TOTAL OUT =  1152491520.0000                 TOTAL OUT =          13.1864

                IN - OUT =      -11904.0000                  IN - OUT =      -1.8501E-04

     PERCENT DISCREPANCY =          -0.00         PERCENT DISCREPANCY =          -0.00






         TIME SUMMARY AT END OF TIME STEP   30 IN STRESS PERIOD   25
                    SECONDS     MINUTES      HOURS       DAYS        YEARS
                    -----------------------------------------------------------
   TIME STEP LENGTH  87600.      1460.0      24.333      1.0139     2.77588E-03
 STRESS PERIOD TIME 2.62800E+06  43800.      730.00      30.417     8.32763E-02
         TOTAL TIME 6.31584E+07 1.05264E+06  17544.      731.00      2.0014    
1

 Run end date and time (yyyy/mm/dd hh:mm:ss): 2018/08/28 12:25:40
 Elapsed run time:  5.900 Seconds

